file 50728148 1765400269                                        
version 3
run mpTest-0-20251210-20:57:21-50863
attr configname mpTest
attr datetime 20251210-20:57:21
attr datetimef 20251210-205721
attr experiment mpTest
attr inifile mpTest.ini
attr iterationvars ""
attr iterationvarsd ""
attr iterationvarsf ""
attr measurement ""
attr network singledumbbell
attr processid 50863
attr repetition 0
attr replication #0
attr resultdir results
attr runnumber 0
attr seedset 0
config debug-on-errors true
config image-path ../../inet4.5/images
config extends General
config **.numberOfFlows 1
config *.client[0].app[0].connectAddress "\"server[0]\""
config *.client[0].app[0].tOpen 0.00846919251197291s
config *.client[0].app[0].tSend 0.00846919251197291s
config *.client[0].app[0].sendBytes 2GB
config **.ppp[*].queue.packetCapacity 100
config network singledumbbell
config sim-time-limit 5s
config record-eventlog false
config cmdenv-express-mode true
config cmdenv-redirect-output false
config cmdenv-output-file dctcpLog.txt
config **.client*.tcp.conn-8.cmdenv-log-level detail
config cmdenv-log-prefix "%t | %m |"
config cmdenv-event-banners false
config **.cmdenv-log-level off
config **.**.tcp.conn-*.cwnd:vector(removeRepeats).vector-recording true
config **.**.tcp.conn-*.rtt:vector(removeRepeats).vector-recording true
config **.**.tcp.conn-*.srtt:vector(removeRepeats).vector-recording true
config **.**.tcp.conn-*.throughput:vector(removeRepeats).vector-recording true
config **.**.tcp.conn-*.**.result-recording-modes vector(removeRepeats)
config **.**.queue.queueLength:vector(removeRepeats).vector-recording true
config **.**.queue.queueLength.result-recording-modes vector(removeRepeats)
config **.**.goodput:vector(removeRepeats).vector-recording true
config **.**.goodput.result-recording-modes vector(removeRepeats)
config **.**.bandwidth:vector(removeRepeats).vector-recording true
config **.**.bandwidth.result-recording-modes vector(removeRepeats)
config **.**.mbytesInFlight:vector(removeRepeats).vector-recording true
config **.**.mbytesInFlight.result-recording-modes vector(removeRepeats)
config **.scalar-recording false
config **.vector-recording true
config **.bin-recording false
config **.goodputInterval 1s
config **.throughputInterval 1s
config **.tcp.typename MpTcp
config **.tcp.tcpAlgorithmClass "\"MpTcpMetaCubic\""
config **.tcp.advertisedWindow 200000000
config **.tcp.windowScalingSupport true
config **.tcp.windowScalingFactor -1
config **.tcp.increasedIWEnabled true
config **.tcp.delayedAcksEnabled false
config **.tcp.timestampSupport true
config **.tcp.ecnWillingness false
config **.tcp.nagleEnabled true
config **.tcp.stopOperationTimeout 4000s
config **.tcp.mss 1448
config **.tcp.sackSupport true
config **.client[*].numApps 1
config **.client[*].app[*].typename MpTcpSessionApp
config *.client[*].app[0].tClose -1s
config *.client[*].app[0].sendBytes 2GB
config *.client[*].app[0].dataTransferMode "\"bytecount\""
config *.client[*].app[0].statistic-recording true
config **.server[*].numApps 1
config **.server[*].app[*].typename MpTcpSinkApp
config **.server[*].app[*].serverThreadModuleType "\"tcpgoodputapplications.applications.tcpapp.TcpGoodputSinkAppThread\""
config **.**.queue.typename DropTailQueue
config **.additiveIncreasePercent 0.05
config **.eta 0.95
config **.alpha 0.01
config **.fixedAvgRTTVal 0
config **.tcp.initialSsthresh 5792000

vector 0 singledumbbell.client[0].lo[0].lo rcvdPkFromHl:vector(packetBytes) ETV
attr interpolationmode none
attr recordingmode vector(packetBytes)
attr source packetReceivedFromUpper
attr title "packets received from higher layer, packetBytes"
vector 1 singledumbbell.client[0].lo[0].lo passedUpPk:vector(packetBytes) ETV
attr interpolationmode none
attr recordingmode vector(packetBytes)
attr source packetSentToUpper
attr title "packets passed to higher layer, packetBytes"
vector 2 singledumbbell.client[0].lo[0] packetDropInterfaceDown:vector(packetBytes) ETV
attr interpolationmode none
attr recordingmode vector(packetBytes)
attr source packetDropReasonIsInterfaceDown(packetDropped)
attr title "packet drops: interface down, packetBytes"
vector 3 singledumbbell.client[0].lo[0] packetDropNoCarrier:vector(packetBytes) ETV
attr interpolationmode none
attr recordingmode vector(packetBytes)
attr source packetDropReasonIsNoCarrier(packetDropped)
attr title "packet drops: no carrier, packetBytes"
vector 4 singledumbbell.client[0].ppp[0].queue queueLength:vector(removeRepeats) ETV
attr autoWarmupFilter false
attr interpolationmode sample-hold
attr recordingmode vector(removeRepeats)
attr source "warmup(atomic(constant0(packetPushEnded) + count(packetPushStarted) - count(packetPulled) - count(packetRemoved) - count(packetDropped)))"
attr title "queue length, removeRepeats"
attr unit pk
vector 5 singledumbbell.client[0].ppp[0].queue queueBitLength:vector ETV
attr autoWarmupFilter false
attr interpolationmode sample-hold
attr recordingmode vector
attr source "warmup(atomic(constant0(packetPushEnded) + sum(packetLength(packetPushStarted)) - sum(packetLength(packetPulled)) - sum(packetLength(packetRemoved)) - sum(packetLength(packetDropped))))"
attr title "queue bit length"
attr unit b
vector 6 singledumbbell.client[0].ppp[0].queue queueingTime:vector ETV
attr interpolationmode none
attr recordingmode vector
attr source queueingTime(packetPulled)
attr title "queueing times"
attr unit s
vector 7 singledumbbell.client[0].ppp[0].queue incomingPacketLengths:vector ETV
attr interpolationmode none
attr recordingmode vector
attr source packetLength(packetPushStarted)
attr title "incoming packet lengths"
attr unit b
vector 8 singledumbbell.client[0].ppp[0].queue incomingDataRate:vector ETV
attr interpolationmode linear
attr recordingmode vector
attr source throughput(packetPushStarted)
attr title "incoming datarate"
attr unit bps
vector 9 singledumbbell.client[0].ppp[0].queue outgoingPacketLengths:vector ETV
attr interpolationmode none
attr recordingmode vector
attr source packetLength(packetPulled)
attr title "outgoing packet lengths"
attr unit b
vector 10 singledumbbell.client[0].ppp[0].queue outgoingDataRate:vector ETV
attr interpolationmode linear
attr recordingmode vector
attr source throughput(packetPulled)
attr title "outgoing datarate"
attr unit bps
vector 11 singledumbbell.client[0].ppp[0].queue droppedPacketLengthsQueueOverflow:vector ETV
attr interpolationmode none
attr recordingmode vector
attr source packetLength(packetDropReasonIsQueueOverflow(packetDropped))
attr title "dropped packet lengths: queue overflow"
attr unit b
vector 12 singledumbbell.client[0].ppp[0].queue flowQueueingTime:vector ETV
attr interpolationmode none
attr recordingmode vector
attr source queueingTime(demuxFlow(packetPulled))
attr title "flow queueing times"
attr unit s
vector 13 singledumbbell.client[0].ppp[0].queue flowIncomingDataRate:vector ETV
attr interpolationmode linear
attr recordingmode vector
attr source throughput(flowPacketLength(demuxFlow(packetPushStarted)))
attr title "flow specific incoming data rate"
attr unit bps
vector 14 singledumbbell.client[0].ppp[0].queue flowOutgoingDataRate:vector ETV
attr interpolationmode linear
attr recordingmode vector
attr source throughput(flowPacketLength(demuxFlow(packetPulled)))
attr title "flow specific outgoing data rate"
attr unit bps
vector 15 singledumbbell.client[0].ppp[0].ppp transmissionState:vector ETV
attr interpolationmode sample-hold
attr recordingmode vector
attr source transmissionStateChanged
attr title "tx state"
vector 16 singledumbbell.client[0].ppp[0].ppp txPk:vector(packetBytes) ETV
attr interpolationmode none
attr recordingmode vector(packetBytes)
attr source packetSentToLower
attr title "packets transmitted, packetBytes"
vector 17 singledumbbell.client[0].ppp[0].ppp rxPkOk:vector(packetBytes) ETV
attr interpolationmode none
attr recordingmode vector(packetBytes)
attr source rxPkOk
attr title "packets received OK, packetBytes"
vector 18 singledumbbell.client[0].ppp[0].ppp packetDropIncorrectlyReceived:vector(packetBytes) ETV
attr interpolationmode none
attr recordingmode vector(packetBytes)
attr source packetDropReasonIsIncorrectlyReceived(packetDropped)
attr title "packet drop: incorrectly received, packetBytes"
vector 19 singledumbbell.client[0].ppp[0].ppp packetDropInterfaceDown:vector(packetBytes) ETV
attr interpolationmode none
attr recordingmode vector(packetBytes)
attr source packetDropReasonIsInterfaceDown(packetDropped)
attr title "packet drop: interface down, packetBytes"
vector 20 singledumbbell.client[0].ppp[0].ppp rcvdPkFromHl:vector(packetBytes) ETV
attr interpolationmode none
attr recordingmode vector(packetBytes)
attr source packetReceivedFromUpper
attr title "packets received from higher layer, packetBytes"
vector 21 singledumbbell.client[0].ppp[0].ppp passedUpPk:vector(packetBytes) ETV
attr interpolationmode none
attr recordingmode vector(packetBytes)
attr source packetSentToUpper
attr title "packets passed to higher layer, packetBytes"
vector 22 singledumbbell.client[0].ppp[0] packetDropInterfaceDown:vector(packetBytes) ETV
attr interpolationmode none
attr recordingmode vector(packetBytes)
attr source packetDropReasonIsInterfaceDown(packetDropped)
attr title "packet drops: interface down, packetBytes"
vector 23 singledumbbell.client[0].ppp[0] packetDropNoCarrier:vector(packetBytes) ETV
attr interpolationmode none
attr recordingmode vector(packetBytes)
attr source packetDropReasonIsNoCarrier(packetDropped)
attr title "packet drops: no carrier, packetBytes"
vector 24 singledumbbell.client[0].ipv4.ip packetDropAddressResolutionFailed:vector(packetBytes) ETV
attr interpolationmode none
attr recordingmode vector(packetBytes)
attr source packetDropReasonIsAddressResolutionFailed(packetDropped)
attr title "packet drop: address resolution failed, packetBytes"
vector 25 singledumbbell.client[0].ipv4.ip packetDropHopLimitReached:vector(packetBytes) ETV
attr interpolationmode none
attr recordingmode vector(packetBytes)
attr source packetDropReasonIsHopLimitReached(packetDropped)
attr title "packet drop: hop limit reached, packetBytes"
vector 26 singledumbbell.client[0].ipv4.ip packetDropForwardingDisabled:vector(packetBytes) ETV
attr interpolationmode none
attr recordingmode vector(packetBytes)
attr source packetDropReasonIsForwardingDisabled(packetDropped)
attr title "packet drop: forwarding disabled, packetBytes"
vector 27 singledumbbell.client[0].ipv4.ip packetDropNoInterfaceFound:vector(packetBytes) ETV
attr interpolationmode none
attr recordingmode vector(packetBytes)
attr source packetDropReasonIsNoInterfaceFound(packetDropped)
attr title "packet drop: no interface found, packetBytes"
vector 28 singledumbbell.client[0].ipv4.ip packetDropNoRouteFound:vector(packetBytes) ETV
attr interpolationmode none
attr recordingmode vector(packetBytes)
attr source packetDropReasonIsNoRouteFound(packetDropped)
attr title "packet drop: no route found, packetBytes"
vector 29 singledumbbell.client[0].ipv4.ip packetDropUndefined:vector(packetBytes) ETV
attr interpolationmode none
attr recordingmode vector(packetBytes)
attr source packetDropReasonIsUndefined(packetDropped)
attr title "packet drop: undefined, packetBytes"
vector 30 singledumbbell.client[0].ipv4.arp arpRequestSent:vector(packetBytes) ETV
attr recordingmode vector(packetBytes)
attr source arpRequestSent
attr title "ARP request sent, packetBytes"
vector 31 singledumbbell.client[0].ipv4.arp arpReplySent:vector(packetBytes) ETV
attr recordingmode vector(packetBytes)
attr source arpReplySent
attr title "ARP replies sent, packetBytes"
vector 32 singledumbbell.client[0].udp packetSent:vector(packetBytes) ETV
attr interpolationmode none
attr recordingmode vector(packetBytes)
attr source packetSent
attr title "packets sent, packetBytes"
vector 33 singledumbbell.client[0].udp packetReceived:vector(packetBytes) ETV
attr interpolationmode none
attr recordingmode vector(packetBytes)
attr source packetReceived
attr title "packets received, packetBytes"
vector 34 singledumbbell.client[0].udp passedUpPk:vector(count) ETV
attr interpolationmode none
attr recordingmode vector(count)
attr source packetSentToUpper
attr title "packets passed up, count"
vector 35 singledumbbell.client[0].udp droppedPkWrongPort:vector(count) ETV
attr interpolationmode none
attr recordingmode vector(count)
attr source packetDropReasonIsNoPortFound(packetDropped)
attr title "packets dropped (wrong port), count"
vector 36 singledumbbell.client[0].udp droppedPkBadChecksum:vector(count) ETV
attr interpolationmode none
attr recordingmode vector(count)
attr source packetDropReasonIsIncorrectlyReceived(packetDropped)
attr title "packets dropped (checksum error), count"
vector 37 singledumbbell.client[0].app[0] packetReceived:vector(packetBytes) ETV
attr interpolationmode none
attr recordingmode vector(packetBytes)
attr source packetReceived
attr title "packets received, packetBytes"
vector 38 singledumbbell.client[0].app[0] packetSent:vector(packetBytes) ETV
attr interpolationmode none
attr recordingmode vector(packetBytes)
attr source packetSent
attr title "packets sent, packetBytes"
vector 39 singledumbbell.client[0].app[0] endToEndDelay:vector ETV
attr interpolationmode none
attr recordingmode vector
attr source dataAge(packetReceived)
attr title "end-to-end delay"
attr unit s
vector 40 singledumbbell.server[0].lo[0].lo rcvdPkFromHl:vector(packetBytes) ETV
attr interpolationmode none
attr recordingmode vector(packetBytes)
attr source packetReceivedFromUpper
attr title "packets received from higher layer, packetBytes"
vector 41 singledumbbell.server[0].lo[0].lo passedUpPk:vector(packetBytes) ETV
attr interpolationmode none
attr recordingmode vector(packetBytes)
attr source packetSentToUpper
attr title "packets passed to higher layer, packetBytes"
vector 42 singledumbbell.server[0].lo[0] packetDropInterfaceDown:vector(packetBytes) ETV
attr interpolationmode none
attr recordingmode vector(packetBytes)
attr source packetDropReasonIsInterfaceDown(packetDropped)
attr title "packet drops: interface down, packetBytes"
vector 43 singledumbbell.server[0].lo[0] packetDropNoCarrier:vector(packetBytes) ETV
attr interpolationmode none
attr recordingmode vector(packetBytes)
attr source packetDropReasonIsNoCarrier(packetDropped)
attr title "packet drops: no carrier, packetBytes"
vector 44 singledumbbell.server[0].ppp[0].queue queueLength:vector(removeRepeats) ETV
attr autoWarmupFilter false
attr interpolationmode sample-hold
attr recordingmode vector(removeRepeats)
attr source "warmup(atomic(constant0(packetPushEnded) + count(packetPushStarted) - count(packetPulled) - count(packetRemoved) - count(packetDropped)))"
attr title "queue length, removeRepeats"
attr unit pk
vector 45 singledumbbell.server[0].ppp[0].queue queueBitLength:vector ETV
attr autoWarmupFilter false
attr interpolationmode sample-hold
attr recordingmode vector
attr source "warmup(atomic(constant0(packetPushEnded) + sum(packetLength(packetPushStarted)) - sum(packetLength(packetPulled)) - sum(packetLength(packetRemoved)) - sum(packetLength(packetDropped))))"
attr title "queue bit length"
attr unit b
vector 46 singledumbbell.server[0].ppp[0].queue queueingTime:vector ETV
attr interpolationmode none
attr recordingmode vector
attr source queueingTime(packetPulled)
attr title "queueing times"
attr unit s
vector 47 singledumbbell.server[0].ppp[0].queue incomingPacketLengths:vector ETV
attr interpolationmode none
attr recordingmode vector
attr source packetLength(packetPushStarted)
attr title "incoming packet lengths"
attr unit b
vector 48 singledumbbell.server[0].ppp[0].queue incomingDataRate:vector ETV
attr interpolationmode linear
attr recordingmode vector
attr source throughput(packetPushStarted)
attr title "incoming datarate"
attr unit bps
vector 49 singledumbbell.server[0].ppp[0].queue outgoingPacketLengths:vector ETV
attr interpolationmode none
attr recordingmode vector
attr source packetLength(packetPulled)
attr title "outgoing packet lengths"
attr unit b
vector 50 singledumbbell.server[0].ppp[0].queue outgoingDataRate:vector ETV
attr interpolationmode linear
attr recordingmode vector
attr source throughput(packetPulled)
attr title "outgoing datarate"
attr unit bps
vector 51 singledumbbell.server[0].ppp[0].queue droppedPacketLengthsQueueOverflow:vector ETV
attr interpolationmode none
attr recordingmode vector
attr source packetLength(packetDropReasonIsQueueOverflow(packetDropped))
attr title "dropped packet lengths: queue overflow"
attr unit b
vector 52 singledumbbell.server[0].ppp[0].queue flowQueueingTime:vector ETV
attr interpolationmode none
attr recordingmode vector
attr source queueingTime(demuxFlow(packetPulled))
attr title "flow queueing times"
attr unit s
vector 53 singledumbbell.server[0].ppp[0].queue flowIncomingDataRate:vector ETV
attr interpolationmode linear
attr recordingmode vector
attr source throughput(flowPacketLength(demuxFlow(packetPushStarted)))
attr title "flow specific incoming data rate"
attr unit bps
vector 54 singledumbbell.server[0].ppp[0].queue flowOutgoingDataRate:vector ETV
attr interpolationmode linear
attr recordingmode vector
attr source throughput(flowPacketLength(demuxFlow(packetPulled)))
attr title "flow specific outgoing data rate"
attr unit bps
vector 55 singledumbbell.server[0].ppp[0].ppp transmissionState:vector ETV
attr interpolationmode sample-hold
attr recordingmode vector
attr source transmissionStateChanged
attr title "tx state"
vector 56 singledumbbell.server[0].ppp[0].ppp txPk:vector(packetBytes) ETV
attr interpolationmode none
attr recordingmode vector(packetBytes)
attr source packetSentToLower
attr title "packets transmitted, packetBytes"
vector 57 singledumbbell.server[0].ppp[0].ppp rxPkOk:vector(packetBytes) ETV
attr interpolationmode none
attr recordingmode vector(packetBytes)
attr source rxPkOk
attr title "packets received OK, packetBytes"
vector 58 singledumbbell.server[0].ppp[0].ppp packetDropIncorrectlyReceived:vector(packetBytes) ETV
attr interpolationmode none
attr recordingmode vector(packetBytes)
attr source packetDropReasonIsIncorrectlyReceived(packetDropped)
attr title "packet drop: incorrectly received, packetBytes"
vector 59 singledumbbell.server[0].ppp[0].ppp packetDropInterfaceDown:vector(packetBytes) ETV
attr interpolationmode none
attr recordingmode vector(packetBytes)
attr source packetDropReasonIsInterfaceDown(packetDropped)
attr title "packet drop: interface down, packetBytes"
vector 60 singledumbbell.server[0].ppp[0].ppp rcvdPkFromHl:vector(packetBytes) ETV
attr interpolationmode none
attr recordingmode vector(packetBytes)
attr source packetReceivedFromUpper
attr title "packets received from higher layer, packetBytes"
vector 61 singledumbbell.server[0].ppp[0].ppp passedUpPk:vector(packetBytes) ETV
attr interpolationmode none
attr recordingmode vector(packetBytes)
attr source packetSentToUpper
attr title "packets passed to higher layer, packetBytes"
vector 62 singledumbbell.server[0].ppp[0] packetDropInterfaceDown:vector(packetBytes) ETV
attr interpolationmode none
attr recordingmode vector(packetBytes)
attr source packetDropReasonIsInterfaceDown(packetDropped)
attr title "packet drops: interface down, packetBytes"
vector 63 singledumbbell.server[0].ppp[0] packetDropNoCarrier:vector(packetBytes) ETV
attr interpolationmode none
attr recordingmode vector(packetBytes)
attr source packetDropReasonIsNoCarrier(packetDropped)
attr title "packet drops: no carrier, packetBytes"
vector 64 singledumbbell.server[0].ipv4.ip packetDropAddressResolutionFailed:vector(packetBytes) ETV
attr interpolationmode none
attr recordingmode vector(packetBytes)
attr source packetDropReasonIsAddressResolutionFailed(packetDropped)
attr title "packet drop: address resolution failed, packetBytes"
vector 65 singledumbbell.server[0].ipv4.ip packetDropHopLimitReached:vector(packetBytes) ETV
attr interpolationmode none
attr recordingmode vector(packetBytes)
attr source packetDropReasonIsHopLimitReached(packetDropped)
attr title "packet drop: hop limit reached, packetBytes"
vector 66 singledumbbell.server[0].ipv4.ip packetDropForwardingDisabled:vector(packetBytes) ETV
attr interpolationmode none
attr recordingmode vector(packetBytes)
attr source packetDropReasonIsForwardingDisabled(packetDropped)
attr title "packet drop: forwarding disabled, packetBytes"
vector 67 singledumbbell.server[0].ipv4.ip packetDropNoInterfaceFound:vector(packetBytes) ETV
attr interpolationmode none
attr recordingmode vector(packetBytes)
attr source packetDropReasonIsNoInterfaceFound(packetDropped)
attr title "packet drop: no interface found, packetBytes"
vector 68 singledumbbell.server[0].ipv4.ip packetDropNoRouteFound:vector(packetBytes) ETV
attr interpolationmode none
attr recordingmode vector(packetBytes)
attr source packetDropReasonIsNoRouteFound(packetDropped)
attr title "packet drop: no route found, packetBytes"
vector 69 singledumbbell.server[0].ipv4.ip packetDropUndefined:vector(packetBytes) ETV
attr interpolationmode none
attr recordingmode vector(packetBytes)
attr source packetDropReasonIsUndefined(packetDropped)
attr title "packet drop: undefined, packetBytes"
vector 70 singledumbbell.server[0].ipv4.arp arpRequestSent:vector(packetBytes) ETV
attr recordingmode vector(packetBytes)
attr source arpRequestSent
attr title "ARP request sent, packetBytes"
vector 71 singledumbbell.server[0].ipv4.arp arpReplySent:vector(packetBytes) ETV
attr recordingmode vector(packetBytes)
attr source arpReplySent
attr title "ARP replies sent, packetBytes"
vector 72 singledumbbell.server[0].udp packetSent:vector(packetBytes) ETV
attr interpolationmode none
attr recordingmode vector(packetBytes)
attr source packetSent
attr title "packets sent, packetBytes"
vector 73 singledumbbell.server[0].udp packetReceived:vector(packetBytes) ETV
attr interpolationmode none
attr recordingmode vector(packetBytes)
attr source packetReceived
attr title "packets received, packetBytes"
vector 74 singledumbbell.server[0].udp passedUpPk:vector(count) ETV
attr interpolationmode none
attr recordingmode vector(count)
attr source packetSentToUpper
attr title "packets passed up, count"
vector 75 singledumbbell.server[0].udp droppedPkWrongPort:vector(count) ETV
attr interpolationmode none
attr recordingmode vector(count)
attr source packetDropReasonIsNoPortFound(packetDropped)
attr title "packets dropped (wrong port), count"
vector 76 singledumbbell.server[0].udp droppedPkBadChecksum:vector(count) ETV
attr interpolationmode none
attr recordingmode vector(count)
attr source packetDropReasonIsIncorrectlyReceived(packetDropped)
attr title "packets dropped (checksum error), count"
vector 77 singledumbbell.server[0].app[0] packetReceived:vector(packetBytes) ETV
attr checkSignals false
attr interpolationmode none
attr recordingmode vector(packetBytes)
attr source packetReceived
attr title "packets received, packetBytes"
vector 78 singledumbbell.server[0].app[0] endToEndDelay:vector ETV
attr checkSignals false
attr interpolationmode none
attr recordingmode vector
attr source dataAge(packetReceived)
attr title "end-to-end delay"
attr unit s
vector 79 singledumbbell.router1.lo[0].lo rcvdPkFromHl:vector(packetBytes) ETV
attr interpolationmode none
attr recordingmode vector(packetBytes)
attr source packetReceivedFromUpper
attr title "packets received from higher layer, packetBytes"
vector 80 singledumbbell.router1.lo[0].lo passedUpPk:vector(packetBytes) ETV
attr interpolationmode none
attr recordingmode vector(packetBytes)
attr source packetSentToUpper
attr title "packets passed to higher layer, packetBytes"
vector 81 singledumbbell.router1.lo[0] packetDropInterfaceDown:vector(packetBytes) ETV
attr interpolationmode none
attr recordingmode vector(packetBytes)
attr source packetDropReasonIsInterfaceDown(packetDropped)
attr title "packet drops: interface down, packetBytes"
vector 82 singledumbbell.router1.lo[0] packetDropNoCarrier:vector(packetBytes) ETV
attr interpolationmode none
attr recordingmode vector(packetBytes)
attr source packetDropReasonIsNoCarrier(packetDropped)
attr title "packet drops: no carrier, packetBytes"
vector 83 singledumbbell.router1.ppp[0].queue queueLength:vector(removeRepeats) ETV
attr autoWarmupFilter false
attr interpolationmode sample-hold
attr recordingmode vector(removeRepeats)
attr source "warmup(atomic(constant0(packetPushEnded) + count(packetPushStarted) - count(packetPulled) - count(packetRemoved) - count(packetDropped)))"
attr title "queue length, removeRepeats"
attr unit pk
vector 84 singledumbbell.router1.ppp[0].queue queueBitLength:vector ETV
attr autoWarmupFilter false
attr interpolationmode sample-hold
attr recordingmode vector
attr source "warmup(atomic(constant0(packetPushEnded) + sum(packetLength(packetPushStarted)) - sum(packetLength(packetPulled)) - sum(packetLength(packetRemoved)) - sum(packetLength(packetDropped))))"
attr title "queue bit length"
attr unit b
vector 85 singledumbbell.router1.ppp[0].queue queueingTime:vector ETV
attr interpolationmode none
attr recordingmode vector
attr source queueingTime(packetPulled)
attr title "queueing times"
attr unit s
vector 86 singledumbbell.router1.ppp[0].queue incomingPacketLengths:vector ETV
attr interpolationmode none
attr recordingmode vector
attr source packetLength(packetPushStarted)
attr title "incoming packet lengths"
attr unit b
vector 87 singledumbbell.router1.ppp[0].queue incomingDataRate:vector ETV
attr interpolationmode linear
attr recordingmode vector
attr source throughput(packetPushStarted)
attr title "incoming datarate"
attr unit bps
vector 88 singledumbbell.router1.ppp[0].queue outgoingPacketLengths:vector ETV
attr interpolationmode none
attr recordingmode vector
attr source packetLength(packetPulled)
attr title "outgoing packet lengths"
attr unit b
vector 89 singledumbbell.router1.ppp[0].queue outgoingDataRate:vector ETV
attr interpolationmode linear
attr recordingmode vector
attr source throughput(packetPulled)
attr title "outgoing datarate"
attr unit bps
vector 90 singledumbbell.router1.ppp[0].queue droppedPacketLengthsQueueOverflow:vector ETV
attr interpolationmode none
attr recordingmode vector
attr source packetLength(packetDropReasonIsQueueOverflow(packetDropped))
attr title "dropped packet lengths: queue overflow"
attr unit b
vector 91 singledumbbell.router1.ppp[0].queue flowQueueingTime:vector ETV
attr interpolationmode none
attr recordingmode vector
attr source queueingTime(demuxFlow(packetPulled))
attr title "flow queueing times"
attr unit s
vector 92 singledumbbell.router1.ppp[0].queue flowIncomingDataRate:vector ETV
attr interpolationmode linear
attr recordingmode vector
attr source throughput(flowPacketLength(demuxFlow(packetPushStarted)))
attr title "flow specific incoming data rate"
attr unit bps
vector 93 singledumbbell.router1.ppp[0].queue flowOutgoingDataRate:vector ETV
attr interpolationmode linear
attr recordingmode vector
attr source throughput(flowPacketLength(demuxFlow(packetPulled)))
attr title "flow specific outgoing data rate"
attr unit bps
vector 94 singledumbbell.router1.ppp[0].ppp transmissionState:vector ETV
attr interpolationmode sample-hold
attr recordingmode vector
attr source transmissionStateChanged
attr title "tx state"
vector 95 singledumbbell.router1.ppp[0].ppp txPk:vector(packetBytes) ETV
attr interpolationmode none
attr recordingmode vector(packetBytes)
attr source packetSentToLower
attr title "packets transmitted, packetBytes"
vector 96 singledumbbell.router1.ppp[0].ppp rxPkOk:vector(packetBytes) ETV
attr interpolationmode none
attr recordingmode vector(packetBytes)
attr source rxPkOk
attr title "packets received OK, packetBytes"
vector 97 singledumbbell.router1.ppp[0].ppp packetDropIncorrectlyReceived:vector(packetBytes) ETV
attr interpolationmode none
attr recordingmode vector(packetBytes)
attr source packetDropReasonIsIncorrectlyReceived(packetDropped)
attr title "packet drop: incorrectly received, packetBytes"
vector 98 singledumbbell.router1.ppp[0].ppp packetDropInterfaceDown:vector(packetBytes) ETV
attr interpolationmode none
attr recordingmode vector(packetBytes)
attr source packetDropReasonIsInterfaceDown(packetDropped)
attr title "packet drop: interface down, packetBytes"
vector 99 singledumbbell.router1.ppp[0].ppp rcvdPkFromHl:vector(packetBytes) ETV
attr interpolationmode none
attr recordingmode vector(packetBytes)
attr source packetReceivedFromUpper
attr title "packets received from higher layer, packetBytes"
vector 100 singledumbbell.router1.ppp[0].ppp passedUpPk:vector(packetBytes) ETV
attr interpolationmode none
attr recordingmode vector(packetBytes)
attr source packetSentToUpper
attr title "packets passed to higher layer, packetBytes"
vector 101 singledumbbell.router1.ppp[0] packetDropInterfaceDown:vector(packetBytes) ETV
attr interpolationmode none
attr recordingmode vector(packetBytes)
attr source packetDropReasonIsInterfaceDown(packetDropped)
attr title "packet drops: interface down, packetBytes"
vector 102 singledumbbell.router1.ppp[0] packetDropNoCarrier:vector(packetBytes) ETV
attr interpolationmode none
attr recordingmode vector(packetBytes)
attr source packetDropReasonIsNoCarrier(packetDropped)
attr title "packet drops: no carrier, packetBytes"
vector 103 singledumbbell.router1.ppp[1].queue queueLength:vector(removeRepeats) ETV
attr autoWarmupFilter false
attr interpolationmode sample-hold
attr recordingmode vector(removeRepeats)
attr source "warmup(atomic(constant0(packetPushEnded) + count(packetPushStarted) - count(packetPulled) - count(packetRemoved) - count(packetDropped)))"
attr title "queue length, removeRepeats"
attr unit pk
vector 104 singledumbbell.router1.ppp[1].queue queueBitLength:vector ETV
attr autoWarmupFilter false
attr interpolationmode sample-hold
attr recordingmode vector
attr source "warmup(atomic(constant0(packetPushEnded) + sum(packetLength(packetPushStarted)) - sum(packetLength(packetPulled)) - sum(packetLength(packetRemoved)) - sum(packetLength(packetDropped))))"
attr title "queue bit length"
attr unit b
vector 105 singledumbbell.router1.ppp[1].queue queueingTime:vector ETV
attr interpolationmode none
attr recordingmode vector
attr source queueingTime(packetPulled)
attr title "queueing times"
attr unit s
vector 106 singledumbbell.router1.ppp[1].queue incomingPacketLengths:vector ETV
attr interpolationmode none
attr recordingmode vector
attr source packetLength(packetPushStarted)
attr title "incoming packet lengths"
attr unit b
vector 107 singledumbbell.router1.ppp[1].queue incomingDataRate:vector ETV
attr interpolationmode linear
attr recordingmode vector
attr source throughput(packetPushStarted)
attr title "incoming datarate"
attr unit bps
vector 108 singledumbbell.router1.ppp[1].queue outgoingPacketLengths:vector ETV
attr interpolationmode none
attr recordingmode vector
attr source packetLength(packetPulled)
attr title "outgoing packet lengths"
attr unit b
vector 109 singledumbbell.router1.ppp[1].queue outgoingDataRate:vector ETV
attr interpolationmode linear
attr recordingmode vector
attr source throughput(packetPulled)
attr title "outgoing datarate"
attr unit bps
vector 110 singledumbbell.router1.ppp[1].queue droppedPacketLengthsQueueOverflow:vector ETV
attr interpolationmode none
attr recordingmode vector
attr source packetLength(packetDropReasonIsQueueOverflow(packetDropped))
attr title "dropped packet lengths: queue overflow"
attr unit b
vector 111 singledumbbell.router1.ppp[1].queue flowQueueingTime:vector ETV
attr interpolationmode none
attr recordingmode vector
attr source queueingTime(demuxFlow(packetPulled))
attr title "flow queueing times"
attr unit s
vector 112 singledumbbell.router1.ppp[1].queue flowIncomingDataRate:vector ETV
attr interpolationmode linear
attr recordingmode vector
attr source throughput(flowPacketLength(demuxFlow(packetPushStarted)))
attr title "flow specific incoming data rate"
attr unit bps
vector 113 singledumbbell.router1.ppp[1].queue flowOutgoingDataRate:vector ETV
attr interpolationmode linear
attr recordingmode vector
attr source throughput(flowPacketLength(demuxFlow(packetPulled)))
attr title "flow specific outgoing data rate"
attr unit bps
vector 114 singledumbbell.router1.ppp[1].ppp transmissionState:vector ETV
attr interpolationmode sample-hold
attr recordingmode vector
attr source transmissionStateChanged
attr title "tx state"
vector 115 singledumbbell.router1.ppp[1].ppp txPk:vector(packetBytes) ETV
attr interpolationmode none
attr recordingmode vector(packetBytes)
attr source packetSentToLower
attr title "packets transmitted, packetBytes"
vector 116 singledumbbell.router1.ppp[1].ppp rxPkOk:vector(packetBytes) ETV
attr interpolationmode none
attr recordingmode vector(packetBytes)
attr source rxPkOk
attr title "packets received OK, packetBytes"
vector 117 singledumbbell.router1.ppp[1].ppp packetDropIncorrectlyReceived:vector(packetBytes) ETV
attr interpolationmode none
attr recordingmode vector(packetBytes)
attr source packetDropReasonIsIncorrectlyReceived(packetDropped)
attr title "packet drop: incorrectly received, packetBytes"
vector 118 singledumbbell.router1.ppp[1].ppp packetDropInterfaceDown:vector(packetBytes) ETV
attr interpolationmode none
attr recordingmode vector(packetBytes)
attr source packetDropReasonIsInterfaceDown(packetDropped)
attr title "packet drop: interface down, packetBytes"
vector 119 singledumbbell.router1.ppp[1].ppp rcvdPkFromHl:vector(packetBytes) ETV
attr interpolationmode none
attr recordingmode vector(packetBytes)
attr source packetReceivedFromUpper
attr title "packets received from higher layer, packetBytes"
vector 120 singledumbbell.router1.ppp[1].ppp passedUpPk:vector(packetBytes) ETV
attr interpolationmode none
attr recordingmode vector(packetBytes)
attr source packetSentToUpper
attr title "packets passed to higher layer, packetBytes"
vector 121 singledumbbell.router1.ppp[1] packetDropInterfaceDown:vector(packetBytes) ETV
attr interpolationmode none
attr recordingmode vector(packetBytes)
attr source packetDropReasonIsInterfaceDown(packetDropped)
attr title "packet drops: interface down, packetBytes"
vector 122 singledumbbell.router1.ppp[1] packetDropNoCarrier:vector(packetBytes) ETV
attr interpolationmode none
attr recordingmode vector(packetBytes)
attr source packetDropReasonIsNoCarrier(packetDropped)
attr title "packet drops: no carrier, packetBytes"
vector 123 singledumbbell.router1.ipv4.ip packetDropAddressResolutionFailed:vector(packetBytes) ETV
attr interpolationmode none
attr recordingmode vector(packetBytes)
attr source packetDropReasonIsAddressResolutionFailed(packetDropped)
attr title "packet drop: address resolution failed, packetBytes"
vector 124 singledumbbell.router1.ipv4.ip packetDropHopLimitReached:vector(packetBytes) ETV
attr interpolationmode none
attr recordingmode vector(packetBytes)
attr source packetDropReasonIsHopLimitReached(packetDropped)
attr title "packet drop: hop limit reached, packetBytes"
vector 125 singledumbbell.router1.ipv4.ip packetDropForwardingDisabled:vector(packetBytes) ETV
attr interpolationmode none
attr recordingmode vector(packetBytes)
attr source packetDropReasonIsForwardingDisabled(packetDropped)
attr title "packet drop: forwarding disabled, packetBytes"
vector 126 singledumbbell.router1.ipv4.ip packetDropNoInterfaceFound:vector(packetBytes) ETV
attr interpolationmode none
attr recordingmode vector(packetBytes)
attr source packetDropReasonIsNoInterfaceFound(packetDropped)
attr title "packet drop: no interface found, packetBytes"
vector 127 singledumbbell.router1.ipv4.ip packetDropNoRouteFound:vector(packetBytes) ETV
attr interpolationmode none
attr recordingmode vector(packetBytes)
attr source packetDropReasonIsNoRouteFound(packetDropped)
attr title "packet drop: no route found, packetBytes"
vector 128 singledumbbell.router1.ipv4.ip packetDropUndefined:vector(packetBytes) ETV
attr interpolationmode none
attr recordingmode vector(packetBytes)
attr source packetDropReasonIsUndefined(packetDropped)
attr title "packet drop: undefined, packetBytes"
vector 129 singledumbbell.router1.ipv4.arp arpRequestSent:vector(packetBytes) ETV
attr recordingmode vector(packetBytes)
attr source arpRequestSent
attr title "ARP request sent, packetBytes"
vector 130 singledumbbell.router1.ipv4.arp arpReplySent:vector(packetBytes) ETV
attr recordingmode vector(packetBytes)
attr source arpReplySent
attr title "ARP replies sent, packetBytes"
vector 131 singledumbbell.router2.lo[0].lo rcvdPkFromHl:vector(packetBytes) ETV
attr interpolationmode none
attr recordingmode vector(packetBytes)
attr source packetReceivedFromUpper
attr title "packets received from higher layer, packetBytes"
vector 132 singledumbbell.router2.lo[0].lo passedUpPk:vector(packetBytes) ETV
attr interpolationmode none
attr recordingmode vector(packetBytes)
attr source packetSentToUpper
attr title "packets passed to higher layer, packetBytes"
vector 133 singledumbbell.router2.lo[0] packetDropInterfaceDown:vector(packetBytes) ETV
attr interpolationmode none
attr recordingmode vector(packetBytes)
attr source packetDropReasonIsInterfaceDown(packetDropped)
attr title "packet drops: interface down, packetBytes"
vector 134 singledumbbell.router2.lo[0] packetDropNoCarrier:vector(packetBytes) ETV
attr interpolationmode none
attr recordingmode vector(packetBytes)
attr source packetDropReasonIsNoCarrier(packetDropped)
attr title "packet drops: no carrier, packetBytes"
vector 135 singledumbbell.router2.ppp[0].queue queueLength:vector(removeRepeats) ETV
attr autoWarmupFilter false
attr interpolationmode sample-hold
attr recordingmode vector(removeRepeats)
attr source "warmup(atomic(constant0(packetPushEnded) + count(packetPushStarted) - count(packetPulled) - count(packetRemoved) - count(packetDropped)))"
attr title "queue length, removeRepeats"
attr unit pk
vector 136 singledumbbell.router2.ppp[0].queue queueBitLength:vector ETV
attr autoWarmupFilter false
attr interpolationmode sample-hold
attr recordingmode vector
attr source "warmup(atomic(constant0(packetPushEnded) + sum(packetLength(packetPushStarted)) - sum(packetLength(packetPulled)) - sum(packetLength(packetRemoved)) - sum(packetLength(packetDropped))))"
attr title "queue bit length"
attr unit b
vector 137 singledumbbell.router2.ppp[0].queue queueingTime:vector ETV
attr interpolationmode none
attr recordingmode vector
attr source queueingTime(packetPulled)
attr title "queueing times"
attr unit s
vector 138 singledumbbell.router2.ppp[0].queue incomingPacketLengths:vector ETV
attr interpolationmode none
attr recordingmode vector
attr source packetLength(packetPushStarted)
attr title "incoming packet lengths"
attr unit b
vector 139 singledumbbell.router2.ppp[0].queue incomingDataRate:vector ETV
attr interpolationmode linear
attr recordingmode vector
attr source throughput(packetPushStarted)
attr title "incoming datarate"
attr unit bps
vector 140 singledumbbell.router2.ppp[0].queue outgoingPacketLengths:vector ETV
attr interpolationmode none
attr recordingmode vector
attr source packetLength(packetPulled)
attr title "outgoing packet lengths"
attr unit b
vector 141 singledumbbell.router2.ppp[0].queue outgoingDataRate:vector ETV
attr interpolationmode linear
attr recordingmode vector
attr source throughput(packetPulled)
attr title "outgoing datarate"
attr unit bps
vector 142 singledumbbell.router2.ppp[0].queue droppedPacketLengthsQueueOverflow:vector ETV
attr interpolationmode none
attr recordingmode vector
attr source packetLength(packetDropReasonIsQueueOverflow(packetDropped))
attr title "dropped packet lengths: queue overflow"
attr unit b
vector 143 singledumbbell.router2.ppp[0].queue flowQueueingTime:vector ETV
attr interpolationmode none
attr recordingmode vector
attr source queueingTime(demuxFlow(packetPulled))
attr title "flow queueing times"
attr unit s
vector 144 singledumbbell.router2.ppp[0].queue flowIncomingDataRate:vector ETV
attr interpolationmode linear
attr recordingmode vector
attr source throughput(flowPacketLength(demuxFlow(packetPushStarted)))
attr title "flow specific incoming data rate"
attr unit bps
vector 145 singledumbbell.router2.ppp[0].queue flowOutgoingDataRate:vector ETV
attr interpolationmode linear
attr recordingmode vector
attr source throughput(flowPacketLength(demuxFlow(packetPulled)))
attr title "flow specific outgoing data rate"
attr unit bps
vector 146 singledumbbell.router2.ppp[0].ppp transmissionState:vector ETV
attr interpolationmode sample-hold
attr recordingmode vector
attr source transmissionStateChanged
attr title "tx state"
vector 147 singledumbbell.router2.ppp[0].ppp txPk:vector(packetBytes) ETV
attr interpolationmode none
attr recordingmode vector(packetBytes)
attr source packetSentToLower
attr title "packets transmitted, packetBytes"
vector 148 singledumbbell.router2.ppp[0].ppp rxPkOk:vector(packetBytes) ETV
attr interpolationmode none
attr recordingmode vector(packetBytes)
attr source rxPkOk
attr title "packets received OK, packetBytes"
vector 149 singledumbbell.router2.ppp[0].ppp packetDropIncorrectlyReceived:vector(packetBytes) ETV
attr interpolationmode none
attr recordingmode vector(packetBytes)
attr source packetDropReasonIsIncorrectlyReceived(packetDropped)
attr title "packet drop: incorrectly received, packetBytes"
vector 150 singledumbbell.router2.ppp[0].ppp packetDropInterfaceDown:vector(packetBytes) ETV
attr interpolationmode none
attr recordingmode vector(packetBytes)
attr source packetDropReasonIsInterfaceDown(packetDropped)
attr title "packet drop: interface down, packetBytes"
vector 151 singledumbbell.router2.ppp[0].ppp rcvdPkFromHl:vector(packetBytes) ETV
attr interpolationmode none
attr recordingmode vector(packetBytes)
attr source packetReceivedFromUpper
attr title "packets received from higher layer, packetBytes"
vector 152 singledumbbell.router2.ppp[0].ppp passedUpPk:vector(packetBytes) ETV
attr interpolationmode none
attr recordingmode vector(packetBytes)
attr source packetSentToUpper
attr title "packets passed to higher layer, packetBytes"
vector 153 singledumbbell.router2.ppp[0] packetDropInterfaceDown:vector(packetBytes) ETV
attr interpolationmode none
attr recordingmode vector(packetBytes)
attr source packetDropReasonIsInterfaceDown(packetDropped)
attr title "packet drops: interface down, packetBytes"
vector 154 singledumbbell.router2.ppp[0] packetDropNoCarrier:vector(packetBytes) ETV
attr interpolationmode none
attr recordingmode vector(packetBytes)
attr source packetDropReasonIsNoCarrier(packetDropped)
attr title "packet drops: no carrier, packetBytes"
vector 155 singledumbbell.router2.ppp[1].queue queueLength:vector(removeRepeats) ETV
attr autoWarmupFilter false
attr interpolationmode sample-hold
attr recordingmode vector(removeRepeats)
attr source "warmup(atomic(constant0(packetPushEnded) + count(packetPushStarted) - count(packetPulled) - count(packetRemoved) - count(packetDropped)))"
attr title "queue length, removeRepeats"
attr unit pk
vector 156 singledumbbell.router2.ppp[1].queue queueBitLength:vector ETV
attr autoWarmupFilter false
attr interpolationmode sample-hold
attr recordingmode vector
attr source "warmup(atomic(constant0(packetPushEnded) + sum(packetLength(packetPushStarted)) - sum(packetLength(packetPulled)) - sum(packetLength(packetRemoved)) - sum(packetLength(packetDropped))))"
attr title "queue bit length"
attr unit b
vector 157 singledumbbell.router2.ppp[1].queue queueingTime:vector ETV
attr interpolationmode none
attr recordingmode vector
attr source queueingTime(packetPulled)
attr title "queueing times"
attr unit s
vector 158 singledumbbell.router2.ppp[1].queue incomingPacketLengths:vector ETV
attr interpolationmode none
attr recordingmode vector
attr source packetLength(packetPushStarted)
attr title "incoming packet lengths"
attr unit b
vector 159 singledumbbell.router2.ppp[1].queue incomingDataRate:vector ETV
attr interpolationmode linear
attr recordingmode vector
attr source throughput(packetPushStarted)
attr title "incoming datarate"
attr unit bps
vector 160 singledumbbell.router2.ppp[1].queue outgoingPacketLengths:vector ETV
attr interpolationmode none
attr recordingmode vector
attr source packetLength(packetPulled)
attr title "outgoing packet lengths"
attr unit b
vector 161 singledumbbell.router2.ppp[1].queue outgoingDataRate:vector ETV
attr interpolationmode linear
attr recordingmode vector
attr source throughput(packetPulled)
attr title "outgoing datarate"
attr unit bps
vector 162 singledumbbell.router2.ppp[1].queue droppedPacketLengthsQueueOverflow:vector ETV
attr interpolationmode none
attr recordingmode vector
attr source packetLength(packetDropReasonIsQueueOverflow(packetDropped))
attr title "dropped packet lengths: queue overflow"
attr unit b
vector 163 singledumbbell.router2.ppp[1].queue flowQueueingTime:vector ETV
attr interpolationmode none
attr recordingmode vector
attr source queueingTime(demuxFlow(packetPulled))
attr title "flow queueing times"
attr unit s
vector 164 singledumbbell.router2.ppp[1].queue flowIncomingDataRate:vector ETV
attr interpolationmode linear
attr recordingmode vector
attr source throughput(flowPacketLength(demuxFlow(packetPushStarted)))
attr title "flow specific incoming data rate"
attr unit bps
vector 165 singledumbbell.router2.ppp[1].queue flowOutgoingDataRate:vector ETV
attr interpolationmode linear
attr recordingmode vector
attr source throughput(flowPacketLength(demuxFlow(packetPulled)))
attr title "flow specific outgoing data rate"
attr unit bps
vector 166 singledumbbell.router2.ppp[1].ppp transmissionState:vector ETV
attr interpolationmode sample-hold
attr recordingmode vector
attr source transmissionStateChanged
attr title "tx state"
vector 167 singledumbbell.router2.ppp[1].ppp txPk:vector(packetBytes) ETV
attr interpolationmode none
attr recordingmode vector(packetBytes)
attr source packetSentToLower
attr title "packets transmitted, packetBytes"
vector 168 singledumbbell.router2.ppp[1].ppp rxPkOk:vector(packetBytes) ETV
attr interpolationmode none
attr recordingmode vector(packetBytes)
attr source rxPkOk
attr title "packets received OK, packetBytes"
vector 169 singledumbbell.router2.ppp[1].ppp packetDropIncorrectlyReceived:vector(packetBytes) ETV
attr interpolationmode none
attr recordingmode vector(packetBytes)
attr source packetDropReasonIsIncorrectlyReceived(packetDropped)
attr title "packet drop: incorrectly received, packetBytes"
vector 170 singledumbbell.router2.ppp[1].ppp packetDropInterfaceDown:vector(packetBytes) ETV
attr interpolationmode none
attr recordingmode vector(packetBytes)
attr source packetDropReasonIsInterfaceDown(packetDropped)
attr title "packet drop: interface down, packetBytes"
vector 171 singledumbbell.router2.ppp[1].ppp rcvdPkFromHl:vector(packetBytes) ETV
attr interpolationmode none
attr recordingmode vector(packetBytes)
attr source packetReceivedFromUpper
attr title "packets received from higher layer, packetBytes"
vector 172 singledumbbell.router2.ppp[1].ppp passedUpPk:vector(packetBytes) ETV
attr interpolationmode none
attr recordingmode vector(packetBytes)
attr source packetSentToUpper
attr title "packets passed to higher layer, packetBytes"
vector 173 singledumbbell.router2.ppp[1] packetDropInterfaceDown:vector(packetBytes) ETV
attr interpolationmode none
attr recordingmode vector(packetBytes)
attr source packetDropReasonIsInterfaceDown(packetDropped)
attr title "packet drops: interface down, packetBytes"
vector 174 singledumbbell.router2.ppp[1] packetDropNoCarrier:vector(packetBytes) ETV
attr interpolationmode none
attr recordingmode vector(packetBytes)
attr source packetDropReasonIsNoCarrier(packetDropped)
attr title "packet drops: no carrier, packetBytes"
vector 175 singledumbbell.router2.ipv4.ip packetDropAddressResolutionFailed:vector(packetBytes) ETV
attr interpolationmode none
attr recordingmode vector(packetBytes)
attr source packetDropReasonIsAddressResolutionFailed(packetDropped)
attr title "packet drop: address resolution failed, packetBytes"
vector 176 singledumbbell.router2.ipv4.ip packetDropHopLimitReached:vector(packetBytes) ETV
attr interpolationmode none
attr recordingmode vector(packetBytes)
attr source packetDropReasonIsHopLimitReached(packetDropped)
attr title "packet drop: hop limit reached, packetBytes"
vector 177 singledumbbell.router2.ipv4.ip packetDropForwardingDisabled:vector(packetBytes) ETV
attr interpolationmode none
attr recordingmode vector(packetBytes)
attr source packetDropReasonIsForwardingDisabled(packetDropped)
attr title "packet drop: forwarding disabled, packetBytes"
vector 178 singledumbbell.router2.ipv4.ip packetDropNoInterfaceFound:vector(packetBytes) ETV
attr interpolationmode none
attr recordingmode vector(packetBytes)
attr source packetDropReasonIsNoInterfaceFound(packetDropped)
attr title "packet drop: no interface found, packetBytes"
vector 179 singledumbbell.router2.ipv4.ip packetDropNoRouteFound:vector(packetBytes) ETV
attr interpolationmode none
attr recordingmode vector(packetBytes)
attr source packetDropReasonIsNoRouteFound(packetDropped)
attr title "packet drop: no route found, packetBytes"
vector 180 singledumbbell.router2.ipv4.ip packetDropUndefined:vector(packetBytes) ETV
attr interpolationmode none
attr recordingmode vector(packetBytes)
attr source packetDropReasonIsUndefined(packetDropped)
attr title "packet drop: undefined, packetBytes"
vector 181 singledumbbell.router2.ipv4.arp arpRequestSent:vector(packetBytes) ETV
attr recordingmode vector(packetBytes)
attr source arpRequestSent
attr title "ARP request sent, packetBytes"
vector 182 singledumbbell.router2.ipv4.arp arpReplySent:vector(packetBytes) ETV
attr recordingmode vector(packetBytes)
attr source arpReplySent
attr title "ARP replies sent, packetBytes"
vector 183 singledumbbell.server[0].app[0].thread_1 packetReceived:vector(packetBytes) ETV
attr interpolationmode none
attr recordingmode vector(packetBytes)
attr source packetReceived
attr title "packets received, packetBytes"
vector 184 singledumbbell.server[0].app[0].thread_1 endToEndDelay:vector ETV
attr interpolationmode none
attr recordingmode vector
attr source dataAge(packetReceived)
attr title "end-to-end delay"
attr unit s
vector 185 singledumbbell.server[0].app[0].thread_1 goodput:vector(removeRepeats) ETV
attr recordingmode vector(removeRepeats)
attr source goodput
attr unit bps
vector 186 singledumbbell.server[0].app[0].thread_8 packetReceived:vector(packetBytes) ETV
attr interpolationmode none
attr recordingmode vector(packetBytes)
attr source packetReceived
attr title "packets received, packetBytes"
vector 187 singledumbbell.server[0].app[0].thread_8 endToEndDelay:vector ETV
attr interpolationmode none
attr recordingmode vector
attr source dataAge(packetReceived)
attr title "end-to-end delay"
attr unit s
vector 188 singledumbbell.server[0].app[0].thread_8 goodput:vector(removeRepeats) ETV
attr recordingmode vector(removeRepeats)
attr source goodput
attr unit bps
vector 189 singledumbbell.server[0].app[0].thread_9 packetReceived:vector(packetBytes) ETV
attr interpolationmode none
attr recordingmode vector(packetBytes)
attr source packetReceived
attr title "packets received, packetBytes"
vector 190 singledumbbell.server[0].app[0].thread_9 endToEndDelay:vector ETV
attr interpolationmode none
attr recordingmode vector
attr source dataAge(packetReceived)
attr title "end-to-end delay"
attr unit s
vector 191 singledumbbell.server[0].app[0].thread_9 goodput:vector(removeRepeats) ETV
attr recordingmode vector(removeRepeats)
attr source goodput
attr unit bps
vector 192 singledumbbell.server[0].tcp.conn-1 state:vector(removeRepeats) ETV
attr interpolationmode sample-hold
attr recordingmode vector(removeRepeats)
vector 193 singledumbbell.server[0].tcp.conn-1 sndWnd:vector(removeRepeats) ETV
attr interpolationmode sample-hold
attr recordingmode vector(removeRepeats)
vector 194 singledumbbell.server[0].tcp.conn-1 rcvWnd:vector(removeRepeats) ETV
attr interpolationmode sample-hold
attr recordingmode vector(removeRepeats)
vector 195 singledumbbell.server[0].tcp.conn-1 rcvAdv:vector(removeRepeats) ETV
attr interpolationmode sample-hold
attr recordingmode vector(removeRepeats)
vector 196 singledumbbell.server[0].tcp.conn-1 sndNxt:vector(removeRepeats) ETV
attr interpolationmode sample-hold
attr recordingmode vector(removeRepeats)
vector 197 singledumbbell.server[0].tcp.conn-1 sndAck:vector(removeRepeats) ETV
attr interpolationmode sample-hold
attr recordingmode vector(removeRepeats)
vector 198 singledumbbell.server[0].tcp.conn-1 rcvSeq:vector(removeRepeats) ETV
attr interpolationmode sample-hold
attr recordingmode vector(removeRepeats)
vector 199 singledumbbell.server[0].tcp.conn-1 rcvAck:vector(removeRepeats) ETV
attr interpolationmode sample-hold
attr recordingmode vector(removeRepeats)
vector 200 singledumbbell.server[0].tcp.conn-1 unacked:vector(removeRepeats) ETV
attr interpolationmode sample-hold
attr recordingmode vector(removeRepeats)
vector 201 singledumbbell.server[0].tcp.conn-1 dupAcks:vector(removeRepeats) ETV
attr interpolationmode sample-hold
attr recordingmode vector(removeRepeats)
vector 202 singledumbbell.server[0].tcp.conn-1 pipe:vector(removeRepeats) ETV
attr interpolationmode sample-hold
attr recordingmode vector(removeRepeats)
vector 203 singledumbbell.server[0].tcp.conn-1 sndSacks:vector(removeRepeats) ETV
attr interpolationmode sample-hold
attr recordingmode vector(removeRepeats)
vector 204 singledumbbell.server[0].tcp.conn-1 rcvSacks:vector(removeRepeats) ETV
attr interpolationmode sample-hold
attr recordingmode vector(removeRepeats)
vector 205 singledumbbell.server[0].tcp.conn-1 rcvOooSeg:vector(removeRepeats) ETV
attr interpolationmode sample-hold
attr recordingmode vector(removeRepeats)
vector 206 singledumbbell.server[0].tcp.conn-1 rcvNASeg:vector(removeRepeats) ETV
attr interpolationmode sample-hold
attr recordingmode vector(removeRepeats)
vector 207 singledumbbell.server[0].tcp.conn-1 sackedBytes:vector(removeRepeats) ETV
attr interpolationmode sample-hold
attr recordingmode vector(removeRepeats)
vector 208 singledumbbell.server[0].tcp.conn-1 tcpRcvQueueBytes:vector(removeRepeats) ETV
attr interpolationmode sample-hold
attr recordingmode vector(removeRepeats)
vector 209 singledumbbell.server[0].tcp.conn-1 tcpRcvQueueDrops:vector(removeRepeats) ETV
attr interpolationmode sample-hold
attr recordingmode vector(removeRepeats)
vector 210 singledumbbell.server[0].tcp.conn-1 tcpRcvPayloadBytes:vector(removeRepeats) ETV
attr interpolationmode sample-hold
attr recordingmode vector(removeRepeats)
vector 211 singledumbbell.server[0].tcp.conn-1 cwnd:vector(removeRepeats) ETV
attr interpolationmode sample-hold
attr recordingmode vector(removeRepeats)
vector 212 singledumbbell.server[0].tcp.conn-1 ssthresh:vector(removeRepeats) ETV
attr interpolationmode sample-hold
attr recordingmode vector(removeRepeats)
vector 213 singledumbbell.server[0].tcp.conn-1 rtt:vector(removeRepeats) ETV
attr interpolationmode sample-hold
attr recordingmode vector(removeRepeats)
vector 214 singledumbbell.server[0].tcp.conn-1 srtt:vector(removeRepeats) ETV
attr interpolationmode sample-hold
attr recordingmode vector(removeRepeats)
vector 215 singledumbbell.server[0].tcp.conn-1 rttvar:vector(removeRepeats) ETV
attr interpolationmode sample-hold
attr recordingmode vector(removeRepeats)
vector 216 singledumbbell.server[0].tcp.conn-1 rto:vector(removeRepeats) ETV
attr interpolationmode sample-hold
attr recordingmode vector(removeRepeats)
vector 217 singledumbbell.server[0].tcp.conn-1 numRtos:vector(removeRepeats) ETV
attr interpolationmode sample-hold
attr recordingmode vector(removeRepeats)
vector 218 singledumbbell.server[0].tcp.conn-1 load:vector(removeRepeats) ETV
attr interpolationmode sample-hold
attr recordingmode vector(removeRepeats)
vector 219 singledumbbell.server[0].tcp.conn-1 calcLoad:vector(removeRepeats) ETV
attr interpolationmode sample-hold
attr recordingmode vector(removeRepeats)
vector 220 singledumbbell.server[0].tcp.conn-1 markingProb:vector(removeRepeats) ETV
attr interpolationmode sample-hold
attr recordingmode vector(removeRepeats)
vector 221 singledumbbell.server[0].tcp.conn-1 throughput:vector(removeRepeats) ETV
attr interpolationmode sample-hold
attr recordingmode vector(removeRepeats)
vector 222 singledumbbell.server[0].tcp.conn-1 additiveIncrease:vector(removeRepeats) ETV
attr interpolationmode sample-hold
attr recordingmode vector(removeRepeats)
vector 223 singledumbbell.server[0].tcp.conn-1 pacingGain:vector(removeRepeats) ETV
attr interpolationmode sample-hold
attr recordingmode vector(removeRepeats)
vector 224 singledumbbell.server[0].tcp.conn-1 paceRate:vector(removeRepeats) ETV
attr interpolationmode sample-hold
attr recordingmode vector(removeRepeats)
vector 225 singledumbbell.server[0].tcp.conn-1 recover:vector(removeRepeats) ETV
attr interpolationmode sample-hold
attr recordingmode vector(removeRepeats)
vector 226 singledumbbell.server[0].tcp.conn-1 lossRecovery:vector(removeRepeats) ETV
attr interpolationmode sample-hold
attr recordingmode vector(removeRepeats)
vector 227 singledumbbell.server[0].tcp.conn-1 highRxt:vector(removeRepeats) ETV
attr interpolationmode sample-hold
attr recordingmode vector(removeRepeats)
vector 228 singledumbbell.server[0].tcp.conn-1 mDelivered:vector(removeRepeats) ETV
attr interpolationmode sample-hold
attr recordingmode vector(removeRepeats)
vector 229 singledumbbell.server[0].tcp.conn-1 mFirstSentTime:vector(removeRepeats) ETV
attr interpolationmode sample-hold
attr recordingmode vector(removeRepeats)
vector 230 singledumbbell.server[0].tcp.conn-1 mLastSentTime:vector(removeRepeats) ETV
attr interpolationmode sample-hold
attr recordingmode vector(removeRepeats)
vector 231 singledumbbell.server[0].tcp.conn-1 mbytesInFlight:vector(removeRepeats) ETV
attr interpolationmode sample-hold
attr recordingmode vector(removeRepeats)
vector 232 singledumbbell.server[0].tcp.conn-1 mbytesInFlightTotal:vector(removeRepeats) ETV
attr interpolationmode sample-hold
attr recordingmode vector(removeRepeats)
vector 233 singledumbbell.server[0].tcp.conn-1 mbytesLoss:vector(removeRepeats) ETV
attr interpolationmode sample-hold
attr recordingmode vector(removeRepeats)
vector 234 singledumbbell.server[0].tcp.conn-1 msendElapsed:vector(removeRepeats) ETV
attr interpolationmode sample-hold
attr recordingmode vector(removeRepeats)
vector 235 singledumbbell.server[0].tcp.conn-1 mackElapsed:vector(removeRepeats) ETV
attr interpolationmode sample-hold
attr recordingmode vector(removeRepeats)
vector 236 singledumbbell.server[0].tcp.conn-1 bicTarget:vector(removeRepeats) ETV
attr interpolationmode sample-hold
attr recordingmode vector(removeRepeats)
vector 237 singledumbbell.server[0].tcp.conn-1 originalPoint:vector(removeRepeats) ETV
attr interpolationmode sample-hold
attr recordingmode vector(removeRepeats)
vector 238 singledumbbell.server[0].tcp.conn-1 cwndSeg:vector(removeRepeats) ETV
attr interpolationmode sample-hold
attr recordingmode vector(removeRepeats)
vector 239 singledumbbell.server[0].tcp.conn-1 bicK:vector(removeRepeats) ETV
attr interpolationmode sample-hold
attr recordingmode vector(removeRepeats)
vector 240 singledumbbell.server[0].tcp.conn-1 cnt:vector(removeRepeats) ETV
attr interpolationmode sample-hold
attr recordingmode vector(removeRepeats)
vector 241 singledumbbell.server[0].tcp.conn-1 lastMaxWindow:vector(removeRepeats) ETV
attr interpolationmode sample-hold
attr recordingmode vector(removeRepeats)
vector 242 singledumbbell.server[0].tcp.conn-1 delayMin:vector(removeRepeats) ETV
attr interpolationmode sample-hold
attr recordingmode vector(removeRepeats)
vector 243 singledumbbell.server[0].tcp.conn-1 concave:vector(removeRepeats) ETV
attr interpolationmode sample-hold
attr recordingmode vector(removeRepeats)
vector 244 singledumbbell.server[0].tcp.conn-1 convex:vector(removeRepeats) ETV
attr interpolationmode sample-hold
attr recordingmode vector(removeRepeats)
vector 245 singledumbbell.server[0].tcp.conn-1 friendly:vector(removeRepeats) ETV
attr interpolationmode sample-hold
attr recordingmode vector(removeRepeats)
vector 246 singledumbbell.server[0].tcp.conn-1 sndUna:vector(removeRepeats) ETV
attr interpolationmode sample-hold
attr recordingmode vector(removeRepeats)
vector 247 singledumbbell.server[0].tcp.conn-1 recoveryPoint:vector(removeRepeats) ETV
attr interpolationmode sample-hold
attr recordingmode vector(removeRepeats)
vector 248 singledumbbell.server[0].tcp.conn-8 state:vector(removeRepeats) ETV
attr interpolationmode sample-hold
attr recordingmode vector(removeRepeats)
vector 249 singledumbbell.server[0].tcp.conn-8 sndWnd:vector(removeRepeats) ETV
attr interpolationmode sample-hold
attr recordingmode vector(removeRepeats)
vector 250 singledumbbell.server[0].tcp.conn-8 rcvWnd:vector(removeRepeats) ETV
attr interpolationmode sample-hold
attr recordingmode vector(removeRepeats)
vector 251 singledumbbell.server[0].tcp.conn-8 rcvAdv:vector(removeRepeats) ETV
attr interpolationmode sample-hold
attr recordingmode vector(removeRepeats)
vector 252 singledumbbell.server[0].tcp.conn-8 sndNxt:vector(removeRepeats) ETV
attr interpolationmode sample-hold
attr recordingmode vector(removeRepeats)
vector 253 singledumbbell.server[0].tcp.conn-8 sndAck:vector(removeRepeats) ETV
attr interpolationmode sample-hold
attr recordingmode vector(removeRepeats)
vector 254 singledumbbell.server[0].tcp.conn-8 rcvSeq:vector(removeRepeats) ETV
attr interpolationmode sample-hold
attr recordingmode vector(removeRepeats)
vector 255 singledumbbell.server[0].tcp.conn-8 rcvAck:vector(removeRepeats) ETV
attr interpolationmode sample-hold
attr recordingmode vector(removeRepeats)
vector 256 singledumbbell.server[0].tcp.conn-8 unacked:vector(removeRepeats) ETV
attr interpolationmode sample-hold
attr recordingmode vector(removeRepeats)
vector 257 singledumbbell.server[0].tcp.conn-8 dupAcks:vector(removeRepeats) ETV
attr interpolationmode sample-hold
attr recordingmode vector(removeRepeats)
vector 258 singledumbbell.server[0].tcp.conn-8 pipe:vector(removeRepeats) ETV
attr interpolationmode sample-hold
attr recordingmode vector(removeRepeats)
vector 259 singledumbbell.server[0].tcp.conn-8 sndSacks:vector(removeRepeats) ETV
attr interpolationmode sample-hold
attr recordingmode vector(removeRepeats)
vector 260 singledumbbell.server[0].tcp.conn-8 rcvSacks:vector(removeRepeats) ETV
attr interpolationmode sample-hold
attr recordingmode vector(removeRepeats)
vector 261 singledumbbell.server[0].tcp.conn-8 rcvOooSeg:vector(removeRepeats) ETV
attr interpolationmode sample-hold
attr recordingmode vector(removeRepeats)
vector 262 singledumbbell.server[0].tcp.conn-8 rcvNASeg:vector(removeRepeats) ETV
attr interpolationmode sample-hold
attr recordingmode vector(removeRepeats)
vector 263 singledumbbell.server[0].tcp.conn-8 sackedBytes:vector(removeRepeats) ETV
attr interpolationmode sample-hold
attr recordingmode vector(removeRepeats)
vector 264 singledumbbell.server[0].tcp.conn-8 tcpRcvQueueBytes:vector(removeRepeats) ETV
attr interpolationmode sample-hold
attr recordingmode vector(removeRepeats)
vector 265 singledumbbell.server[0].tcp.conn-8 tcpRcvQueueDrops:vector(removeRepeats) ETV
attr interpolationmode sample-hold
attr recordingmode vector(removeRepeats)
vector 266 singledumbbell.server[0].tcp.conn-8 tcpRcvPayloadBytes:vector(removeRepeats) ETV
attr interpolationmode sample-hold
attr recordingmode vector(removeRepeats)
vector 267 singledumbbell.server[0].tcp.conn-8 cwnd:vector(removeRepeats) ETV
attr interpolationmode sample-hold
attr recordingmode vector(removeRepeats)
vector 268 singledumbbell.server[0].tcp.conn-8 ssthresh:vector(removeRepeats) ETV
attr interpolationmode sample-hold
attr recordingmode vector(removeRepeats)
vector 269 singledumbbell.server[0].tcp.conn-8 rtt:vector(removeRepeats) ETV
attr interpolationmode sample-hold
attr recordingmode vector(removeRepeats)
vector 270 singledumbbell.server[0].tcp.conn-8 srtt:vector(removeRepeats) ETV
attr interpolationmode sample-hold
attr recordingmode vector(removeRepeats)
vector 271 singledumbbell.server[0].tcp.conn-8 rttvar:vector(removeRepeats) ETV
attr interpolationmode sample-hold
attr recordingmode vector(removeRepeats)
vector 272 singledumbbell.server[0].tcp.conn-8 rto:vector(removeRepeats) ETV
attr interpolationmode sample-hold
attr recordingmode vector(removeRepeats)
vector 273 singledumbbell.server[0].tcp.conn-8 numRtos:vector(removeRepeats) ETV
attr interpolationmode sample-hold
attr recordingmode vector(removeRepeats)
vector 274 singledumbbell.server[0].tcp.conn-8 load:vector(removeRepeats) ETV
attr interpolationmode sample-hold
attr recordingmode vector(removeRepeats)
vector 275 singledumbbell.server[0].tcp.conn-8 calcLoad:vector(removeRepeats) ETV
attr interpolationmode sample-hold
attr recordingmode vector(removeRepeats)
vector 276 singledumbbell.server[0].tcp.conn-8 markingProb:vector(removeRepeats) ETV
attr interpolationmode sample-hold
attr recordingmode vector(removeRepeats)
vector 277 singledumbbell.server[0].tcp.conn-8 throughput:vector(removeRepeats) ETV
attr interpolationmode sample-hold
attr recordingmode vector(removeRepeats)
vector 278 singledumbbell.server[0].tcp.conn-8 additiveIncrease:vector(removeRepeats) ETV
attr interpolationmode sample-hold
attr recordingmode vector(removeRepeats)
vector 279 singledumbbell.server[0].tcp.conn-8 pacingGain:vector(removeRepeats) ETV
attr interpolationmode sample-hold
attr recordingmode vector(removeRepeats)
vector 280 singledumbbell.server[0].tcp.conn-8 paceRate:vector(removeRepeats) ETV
attr interpolationmode sample-hold
attr recordingmode vector(removeRepeats)
vector 281 singledumbbell.server[0].tcp.conn-8 recover:vector(removeRepeats) ETV
attr interpolationmode sample-hold
attr recordingmode vector(removeRepeats)
vector 282 singledumbbell.server[0].tcp.conn-8 lossRecovery:vector(removeRepeats) ETV
attr interpolationmode sample-hold
attr recordingmode vector(removeRepeats)
vector 283 singledumbbell.server[0].tcp.conn-8 highRxt:vector(removeRepeats) ETV
attr interpolationmode sample-hold
attr recordingmode vector(removeRepeats)
vector 284 singledumbbell.server[0].tcp.conn-8 mDelivered:vector(removeRepeats) ETV
attr interpolationmode sample-hold
attr recordingmode vector(removeRepeats)
vector 285 singledumbbell.server[0].tcp.conn-8 mFirstSentTime:vector(removeRepeats) ETV
attr interpolationmode sample-hold
attr recordingmode vector(removeRepeats)
vector 286 singledumbbell.server[0].tcp.conn-8 mLastSentTime:vector(removeRepeats) ETV
attr interpolationmode sample-hold
attr recordingmode vector(removeRepeats)
vector 287 singledumbbell.server[0].tcp.conn-8 mbytesInFlight:vector(removeRepeats) ETV
attr interpolationmode sample-hold
attr recordingmode vector(removeRepeats)
vector 288 singledumbbell.server[0].tcp.conn-8 mbytesInFlightTotal:vector(removeRepeats) ETV
attr interpolationmode sample-hold
attr recordingmode vector(removeRepeats)
vector 289 singledumbbell.server[0].tcp.conn-8 mbytesLoss:vector(removeRepeats) ETV
attr interpolationmode sample-hold
attr recordingmode vector(removeRepeats)
vector 290 singledumbbell.server[0].tcp.conn-8 msendElapsed:vector(removeRepeats) ETV
attr interpolationmode sample-hold
attr recordingmode vector(removeRepeats)
vector 291 singledumbbell.server[0].tcp.conn-8 mackElapsed:vector(removeRepeats) ETV
attr interpolationmode sample-hold
attr recordingmode vector(removeRepeats)
vector 292 singledumbbell.server[0].tcp.conn-8 bicTarget:vector(removeRepeats) ETV
attr interpolationmode sample-hold
attr recordingmode vector(removeRepeats)
vector 293 singledumbbell.server[0].tcp.conn-8 originalPoint:vector(removeRepeats) ETV
attr interpolationmode sample-hold
attr recordingmode vector(removeRepeats)
vector 294 singledumbbell.server[0].tcp.conn-8 cwndSeg:vector(removeRepeats) ETV
attr interpolationmode sample-hold
attr recordingmode vector(removeRepeats)
vector 295 singledumbbell.server[0].tcp.conn-8 bicK:vector(removeRepeats) ETV
attr interpolationmode sample-hold
attr recordingmode vector(removeRepeats)
vector 296 singledumbbell.server[0].tcp.conn-8 cnt:vector(removeRepeats) ETV
attr interpolationmode sample-hold
attr recordingmode vector(removeRepeats)
vector 297 singledumbbell.server[0].tcp.conn-8 lastMaxWindow:vector(removeRepeats) ETV
attr interpolationmode sample-hold
attr recordingmode vector(removeRepeats)
vector 298 singledumbbell.server[0].tcp.conn-8 delayMin:vector(removeRepeats) ETV
attr interpolationmode sample-hold
attr recordingmode vector(removeRepeats)
vector 299 singledumbbell.server[0].tcp.conn-8 concave:vector(removeRepeats) ETV
attr interpolationmode sample-hold
attr recordingmode vector(removeRepeats)
vector 300 singledumbbell.server[0].tcp.conn-8 convex:vector(removeRepeats) ETV
attr interpolationmode sample-hold
attr recordingmode vector(removeRepeats)
vector 301 singledumbbell.server[0].tcp.conn-8 friendly:vector(removeRepeats) ETV
attr interpolationmode sample-hold
attr recordingmode vector(removeRepeats)
vector 302 singledumbbell.server[0].tcp.conn-8 sndUna:vector(removeRepeats) ETV
attr interpolationmode sample-hold
attr recordingmode vector(removeRepeats)
vector 303 singledumbbell.server[0].tcp.conn-8 recoveryPoint:vector(removeRepeats) ETV
attr interpolationmode sample-hold
attr recordingmode vector(removeRepeats)
vector 304 singledumbbell.server[0].tcp.conn-9 state:vector(removeRepeats) ETV
attr interpolationmode sample-hold
attr recordingmode vector(removeRepeats)
vector 305 singledumbbell.server[0].tcp.conn-9 sndWnd:vector(removeRepeats) ETV
attr interpolationmode sample-hold
attr recordingmode vector(removeRepeats)
vector 306 singledumbbell.server[0].tcp.conn-9 rcvWnd:vector(removeRepeats) ETV
attr interpolationmode sample-hold
attr recordingmode vector(removeRepeats)
vector 307 singledumbbell.server[0].tcp.conn-9 rcvAdv:vector(removeRepeats) ETV
attr interpolationmode sample-hold
attr recordingmode vector(removeRepeats)
vector 308 singledumbbell.server[0].tcp.conn-9 sndNxt:vector(removeRepeats) ETV
attr interpolationmode sample-hold
attr recordingmode vector(removeRepeats)
vector 309 singledumbbell.server[0].tcp.conn-9 sndAck:vector(removeRepeats) ETV
attr interpolationmode sample-hold
attr recordingmode vector(removeRepeats)
vector 310 singledumbbell.server[0].tcp.conn-9 rcvSeq:vector(removeRepeats) ETV
attr interpolationmode sample-hold
attr recordingmode vector(removeRepeats)
vector 311 singledumbbell.server[0].tcp.conn-9 rcvAck:vector(removeRepeats) ETV
attr interpolationmode sample-hold
attr recordingmode vector(removeRepeats)
vector 312 singledumbbell.server[0].tcp.conn-9 unacked:vector(removeRepeats) ETV
attr interpolationmode sample-hold
attr recordingmode vector(removeRepeats)
vector 313 singledumbbell.server[0].tcp.conn-9 dupAcks:vector(removeRepeats) ETV
attr interpolationmode sample-hold
attr recordingmode vector(removeRepeats)
vector 314 singledumbbell.server[0].tcp.conn-9 pipe:vector(removeRepeats) ETV
attr interpolationmode sample-hold
attr recordingmode vector(removeRepeats)
vector 315 singledumbbell.server[0].tcp.conn-9 sndSacks:vector(removeRepeats) ETV
attr interpolationmode sample-hold
attr recordingmode vector(removeRepeats)
vector 316 singledumbbell.server[0].tcp.conn-9 rcvSacks:vector(removeRepeats) ETV
attr interpolationmode sample-hold
attr recordingmode vector(removeRepeats)
vector 317 singledumbbell.server[0].tcp.conn-9 rcvOooSeg:vector(removeRepeats) ETV
attr interpolationmode sample-hold
attr recordingmode vector(removeRepeats)
vector 318 singledumbbell.server[0].tcp.conn-9 rcvNASeg:vector(removeRepeats) ETV
attr interpolationmode sample-hold
attr recordingmode vector(removeRepeats)
vector 319 singledumbbell.server[0].tcp.conn-9 sackedBytes:vector(removeRepeats) ETV
attr interpolationmode sample-hold
attr recordingmode vector(removeRepeats)
vector 320 singledumbbell.server[0].tcp.conn-9 tcpRcvQueueBytes:vector(removeRepeats) ETV
attr interpolationmode sample-hold
attr recordingmode vector(removeRepeats)
vector 321 singledumbbell.server[0].tcp.conn-9 tcpRcvQueueDrops:vector(removeRepeats) ETV
attr interpolationmode sample-hold
attr recordingmode vector(removeRepeats)
vector 322 singledumbbell.server[0].tcp.conn-9 tcpRcvPayloadBytes:vector(removeRepeats) ETV
attr interpolationmode sample-hold
attr recordingmode vector(removeRepeats)
vector 323 singledumbbell.server[0].tcp.conn-9 cwnd:vector(removeRepeats) ETV
attr interpolationmode sample-hold
attr recordingmode vector(removeRepeats)
vector 324 singledumbbell.server[0].tcp.conn-9 ssthresh:vector(removeRepeats) ETV
attr interpolationmode sample-hold
attr recordingmode vector(removeRepeats)
vector 325 singledumbbell.server[0].tcp.conn-9 rtt:vector(removeRepeats) ETV
attr interpolationmode sample-hold
attr recordingmode vector(removeRepeats)
vector 326 singledumbbell.server[0].tcp.conn-9 srtt:vector(removeRepeats) ETV
attr interpolationmode sample-hold
attr recordingmode vector(removeRepeats)
vector 327 singledumbbell.server[0].tcp.conn-9 rttvar:vector(removeRepeats) ETV
attr interpolationmode sample-hold
attr recordingmode vector(removeRepeats)
vector 328 singledumbbell.server[0].tcp.conn-9 rto:vector(removeRepeats) ETV
attr interpolationmode sample-hold
attr recordingmode vector(removeRepeats)
vector 329 singledumbbell.server[0].tcp.conn-9 numRtos:vector(removeRepeats) ETV
attr interpolationmode sample-hold
attr recordingmode vector(removeRepeats)
vector 330 singledumbbell.server[0].tcp.conn-9 load:vector(removeRepeats) ETV
attr interpolationmode sample-hold
attr recordingmode vector(removeRepeats)
vector 331 singledumbbell.server[0].tcp.conn-9 calcLoad:vector(removeRepeats) ETV
attr interpolationmode sample-hold
attr recordingmode vector(removeRepeats)
vector 332 singledumbbell.server[0].tcp.conn-9 markingProb:vector(removeRepeats) ETV
attr interpolationmode sample-hold
attr recordingmode vector(removeRepeats)
vector 333 singledumbbell.server[0].tcp.conn-9 throughput:vector(removeRepeats) ETV
attr interpolationmode sample-hold
attr recordingmode vector(removeRepeats)
vector 334 singledumbbell.server[0].tcp.conn-9 additiveIncrease:vector(removeRepeats) ETV
attr interpolationmode sample-hold
attr recordingmode vector(removeRepeats)
vector 335 singledumbbell.server[0].tcp.conn-9 pacingGain:vector(removeRepeats) ETV
attr interpolationmode sample-hold
attr recordingmode vector(removeRepeats)
vector 336 singledumbbell.server[0].tcp.conn-9 paceRate:vector(removeRepeats) ETV
attr interpolationmode sample-hold
attr recordingmode vector(removeRepeats)
vector 337 singledumbbell.server[0].tcp.conn-9 recover:vector(removeRepeats) ETV
attr interpolationmode sample-hold
attr recordingmode vector(removeRepeats)
vector 338 singledumbbell.server[0].tcp.conn-9 lossRecovery:vector(removeRepeats) ETV
attr interpolationmode sample-hold
attr recordingmode vector(removeRepeats)
vector 339 singledumbbell.server[0].tcp.conn-9 highRxt:vector(removeRepeats) ETV
attr interpolationmode sample-hold
attr recordingmode vector(removeRepeats)
vector 340 singledumbbell.server[0].tcp.conn-9 mDelivered:vector(removeRepeats) ETV
attr interpolationmode sample-hold
attr recordingmode vector(removeRepeats)
vector 341 singledumbbell.server[0].tcp.conn-9 mFirstSentTime:vector(removeRepeats) ETV
attr interpolationmode sample-hold
attr recordingmode vector(removeRepeats)
vector 342 singledumbbell.server[0].tcp.conn-9 mLastSentTime:vector(removeRepeats) ETV
attr interpolationmode sample-hold
attr recordingmode vector(removeRepeats)
vector 343 singledumbbell.server[0].tcp.conn-9 mbytesInFlight:vector(removeRepeats) ETV
attr interpolationmode sample-hold
attr recordingmode vector(removeRepeats)
vector 344 singledumbbell.server[0].tcp.conn-9 mbytesInFlightTotal:vector(removeRepeats) ETV
attr interpolationmode sample-hold
attr recordingmode vector(removeRepeats)
vector 345 singledumbbell.server[0].tcp.conn-9 mbytesLoss:vector(removeRepeats) ETV
attr interpolationmode sample-hold
attr recordingmode vector(removeRepeats)
vector 346 singledumbbell.server[0].tcp.conn-9 msendElapsed:vector(removeRepeats) ETV
attr interpolationmode sample-hold
attr recordingmode vector(removeRepeats)
vector 347 singledumbbell.server[0].tcp.conn-9 mackElapsed:vector(removeRepeats) ETV
attr interpolationmode sample-hold
attr recordingmode vector(removeRepeats)
vector 348 singledumbbell.server[0].tcp.conn-9 bicTarget:vector(removeRepeats) ETV
attr interpolationmode sample-hold
attr recordingmode vector(removeRepeats)
vector 349 singledumbbell.server[0].tcp.conn-9 originalPoint:vector(removeRepeats) ETV
attr interpolationmode sample-hold
attr recordingmode vector(removeRepeats)
vector 350 singledumbbell.server[0].tcp.conn-9 cwndSeg:vector(removeRepeats) ETV
attr interpolationmode sample-hold
attr recordingmode vector(removeRepeats)
vector 351 singledumbbell.server[0].tcp.conn-9 bicK:vector(removeRepeats) ETV
attr interpolationmode sample-hold
attr recordingmode vector(removeRepeats)
vector 352 singledumbbell.server[0].tcp.conn-9 cnt:vector(removeRepeats) ETV
attr interpolationmode sample-hold
attr recordingmode vector(removeRepeats)
vector 353 singledumbbell.server[0].tcp.conn-9 lastMaxWindow:vector(removeRepeats) ETV
attr interpolationmode sample-hold
attr recordingmode vector(removeRepeats)
vector 354 singledumbbell.server[0].tcp.conn-9 delayMin:vector(removeRepeats) ETV
attr interpolationmode sample-hold
attr recordingmode vector(removeRepeats)
vector 355 singledumbbell.server[0].tcp.conn-9 concave:vector(removeRepeats) ETV
attr interpolationmode sample-hold
attr recordingmode vector(removeRepeats)
vector 356 singledumbbell.server[0].tcp.conn-9 convex:vector(removeRepeats) ETV
attr interpolationmode sample-hold
attr recordingmode vector(removeRepeats)
vector 357 singledumbbell.server[0].tcp.conn-9 friendly:vector(removeRepeats) ETV
attr interpolationmode sample-hold
attr recordingmode vector(removeRepeats)
vector 358 singledumbbell.server[0].tcp.conn-9 sndUna:vector(removeRepeats) ETV
attr interpolationmode sample-hold
attr recordingmode vector(removeRepeats)
vector 359 singledumbbell.server[0].tcp.conn-9 recoveryPoint:vector(removeRepeats) ETV
attr interpolationmode sample-hold
attr recordingmode vector(removeRepeats)
vector 360 singledumbbell.client[0].tcp.conn-10 state:vector(removeRepeats) ETV
attr interpolationmode sample-hold
attr recordingmode vector(removeRepeats)
vector 361 singledumbbell.client[0].tcp.conn-10 sndWnd:vector(removeRepeats) ETV
attr interpolationmode sample-hold
attr recordingmode vector(removeRepeats)
vector 362 singledumbbell.client[0].tcp.conn-10 rcvWnd:vector(removeRepeats) ETV
attr interpolationmode sample-hold
attr recordingmode vector(removeRepeats)
vector 363 singledumbbell.client[0].tcp.conn-10 rcvAdv:vector(removeRepeats) ETV
attr interpolationmode sample-hold
attr recordingmode vector(removeRepeats)
vector 364 singledumbbell.client[0].tcp.conn-10 sndNxt:vector(removeRepeats) ETV
attr interpolationmode sample-hold
attr recordingmode vector(removeRepeats)
vector 365 singledumbbell.client[0].tcp.conn-10 sndAck:vector(removeRepeats) ETV
attr interpolationmode sample-hold
attr recordingmode vector(removeRepeats)
vector 366 singledumbbell.client[0].tcp.conn-10 rcvSeq:vector(removeRepeats) ETV
attr interpolationmode sample-hold
attr recordingmode vector(removeRepeats)
vector 367 singledumbbell.client[0].tcp.conn-10 rcvAck:vector(removeRepeats) ETV
attr interpolationmode sample-hold
attr recordingmode vector(removeRepeats)
vector 368 singledumbbell.client[0].tcp.conn-10 unacked:vector(removeRepeats) ETV
attr interpolationmode sample-hold
attr recordingmode vector(removeRepeats)
vector 369 singledumbbell.client[0].tcp.conn-10 dupAcks:vector(removeRepeats) ETV
attr interpolationmode sample-hold
attr recordingmode vector(removeRepeats)
vector 370 singledumbbell.client[0].tcp.conn-10 pipe:vector(removeRepeats) ETV
attr interpolationmode sample-hold
attr recordingmode vector(removeRepeats)
vector 371 singledumbbell.client[0].tcp.conn-10 sndSacks:vector(removeRepeats) ETV
attr interpolationmode sample-hold
attr recordingmode vector(removeRepeats)
[...]
49	34384104 187485 379143 568166 3.197694319798 4.756293999798 6465 416 416 2689440 1118807040
50	34571589 2624 381743 565973 3.219153999798 4.738209999798 64 1725282.0172528 1725282.0172528 110418049.10418 1.9050227449958e+14
55	34574213 349110 379143 568167 3.197694319798 4.756294046998 12930 0 1 6465 6465
56	34923323 181020 379143 568166 3.197694319798 4.756293999798 6465 59 59 381435 22504665
57	35104343 193950 379139 568162 3.197694319798 4.756293999798 6465 1507 1507 9742755 14682331785
60	35298293 181020 379143 568166 3.197694319798 4.756293999798 6465 52 52 336180 17481360
61	35479313 193950 379139 568162 3.197694319798 4.756293999798 6465 1500 1500 9697500 14546250000
84	35673263 174555 379137 568160 3.197649166998 4.756248846998 6465 0 0 0 0
85	35847818 174582 379137 568182 3.197649166998 4.756489966998 6466 0 0 0 0
86	36022400 187514 379137 568182 3.197649166998 4.756489966998 6466 416 416 2689856 1118980096
87	36209914 2665 379426 566578 3.200060366998 4.743228366998 65 1725282.0172528 1725282.0172528 112143331.12143 1.9347887253864e+14
88	36212579 187485 379137 568160 3.197649166998 4.756248846998 6465 416 416 2689440 1118807040
89	36400064 2665 379426 566578 3.200060366998 4.743228366998 65 1725282.0172528 1725282.0172528 112143331.12143 1.9347887253864e+14
94	36402729 349110 379137 568161 3.197649166998 4.756248894198 12930 0 1 6465 6465
95	36751839 181020 379137 568160 3.197649166998 4.756248846998 6465 59 59 381435 22504665
96	36932859 193628 379145 568140 3.197746739798 4.756105299798 6465 1507 1507 9742755 14682331785
99	37126487 181020 379137 568160 3.197649166998 4.756248846998 6465 52 52 336180 17481360
100	37307507 200093 379145 568140 3.197746739798 4.756105299798 6465 1500 1500 9697500 14546250000
103	37507600 374677 379120 568168 3.197506634198 4.756347434198 12931 88 91 1162140 104452502
104	37882277 439366 379119 568168 3.197505619798 4.756347434198 12932 1056000 1092000 13946760000 1.5042326688e+16
105	38321643 257772 379120 568168 3.197506634198 4.756347434198 6466 0.0212195744 0.0217018144 139.77247214338 3.0214706637695
106	38579415 206558 379147 568142 3.197746739798 4.756105299798 6465 12000 12000 77580000 930960000000
107	38785973 2719 380723 567820 3.210715695968 4.753452979798 65 49346887.76386 50599984.138069 3235459904.532 1.6105215649006e+17
108	38788692 206912 379120 568168 3.197506634198 4.756347434198 6466 12000 12000 77592000 931104000000
109	38995604 2688 381689 565919 3.218725194198 4.737781194198 64 49767750.497678 49767750.497678 3185136031.8514 1.5851705533434e+17
114	38998292 362096 379120 568168 3.197506634198 4.756347434198 12932 0 1 6466 6466
115	39360388 200446 379120 568168 3.197506634198 4.756347434198 6466 1507 1507 9744262 14684602834
116	39560834 187514 379135 568180 3.197649166998 4.756489966998 6466 59 59 381494 22508146
119	39748348 200446 379120 568168 3.197506634198 4.756347434198 6466 1500 1500 9699000 14548500000
120	39948794 187514 379135 568180 3.197649166998 4.756489966998 6466 52 52 336232 17484064
136	40136308 181048 379123 568171 3.197524394198 4.756365194198 6466 0 0 0 0
137	40317356 181048 379123 568171 3.197524394198 4.756365194198 6466 0 0 0 0
138	40498404 206912 379123 568171 3.197524394198 4.756365194198 6466 12000 12000 77592000 931104000000
139	40705316 2688 381692 565922 3.218742954198 4.737798954198 64 49767750.497678 49767750.497678 3185136031.8514 1.5851705533434e+17
140	40708004 206912 379123 568171 3.197524394198 4.756365194198 6466 12000 12000 77592000 931104000000
141	40914916 2688 381692 565922 3.218742954198 4.737798954198 64 49767750.497678 49767750.497678 3185136031.8514 1.5851705533434e+17
146	40917604 362096 379123 568172 3.197524394198 4.756366399798 12932 0 1 6466 6466
147	41279700 200446 379123 568171 3.197524394198 4.756365194198 6466 1507 1507 9744262 14684602834
148	41480146 187514 379131 568176 3.197621966998 4.756462766998 6466 59 59 381494 22508146
151	41667660 200446 379123 568171 3.197524394198 4.756365194198 6466 1500 1500 9699000 14548500000
152	41868106 187514 379131 568176 3.197621966998 4.756462766998 6466 52 52 336232 17484064
156	42055620 181048 379133 568178 3.197621966998 4.756462766998 6466 0 0 0 0
157	42236668 181048 379133 568178 3.197621966998 4.756462766998 6466 0 0 0 0
158	42417716 193980 379133 568178 3.197621966998 4.756462766998 6466 416 416 2689856 1118980096
159	42611696 2730 379363 566518 3.199550926998 4.742718926998 65 1725282.0172528 1725282.0172528 112143331.12143 1.9347887253864e+14
160	42614426 193980 379133 568178 3.197621966998 4.756462766998 6466 416 416 2689856 1118980096
161	42808406 2730 379363 566518 3.199550926998 4.742718926998 65 1725282.0172528 1725282.0172528 112143331.12143 1.9347887253864e+14
166	42811136 362096 379133 568179 3.197621966998 4.756472206998 12932 0 1 6466 6466
167	43173232 187514 379133 568178 3.197621966998 4.756462766998 6466 59 59 381494 22508146
168	43360746 200446 379121 568169 3.197524394198 4.756365194198 6466 1507 1507 9744262 14684602834
171	43561192 187514 379133 568178 3.197621966998 4.756462766998 6466 52 52 336232 17484064
172	43748706 200446 379121 568169 3.197524394198 4.756365194198 6466 1500 1500 9699000 14548500000
251	43949152 88128 379141 568164 3.197694319798 4.756293999798 2448 207536062 211079318 512385225120 1.0724873110456e+20
253	44037280 83978 379141 568164 3.197694319798 4.756293999798 2448 7536062 11079318 22785225120 2.1464105656475e+17
254	44121258 83977 379141 568164 3.197694319798 4.756293999798 2448 7534614 11077870 22781680416 2.1457507568554e+17
307	44205235 144612 379171 568136 3.197935439798 4.756052879798 4017 211083662 216898830 859602835182 1.8395880736904e+20
309	44349847 140595 379171 568136 3.197935439798 4.756052879798 4017 11083662 16898830 56202835182 7.9767329623818e+17
310	44490442 140595 379171 568136 3.197935439798 4.756052879798 4017 11082214 16897382 56197018566 7.9751054124995e+17
364	44631037 225982 379127 568150 3.197576814198 4.756176494198 6466 18805846 28167166 151863747796 3.6139837202973e+18
420	44857019 83991 379159 568130 3.197870362647 4.756027200324 2451 7602670 11150270 22981727970 2.1806016267412e+17
423	44941010 84065 379155 568175 3.197817934198 4.756417614198 2451 7509998 11057598 22754588898 2.1382168671733e+17
424	45025075 156726 379155 568175 3.197817934198 4.756417614198 4902 92672 95568 463749512 43876615451584
435	45181801 32 410148 410148 3.453405134198 3.453405134198 1 95568 95568 95568 9133242624
437	45181833 19776 379155 568175 3.197817934198 4.756417614198 618 0.041 0.042 25.647 1.064505
438	45201609 100231 379155 568175 3.197817934198 4.756417614198 2451 0.041310811152 0.041999478588 102.61654634132 4.2963048077271
439	45301840 99625 379155 568175 3.197817934198 4.756417614198 2451 4.175434e-06 0.000522079665 0.529061452702 0.0001654929644281
448	45401465 102645 379155 568175 3.197817934198 4.756417614198 2451 21.559989613013 22.130494278247 53576.755402621 1171162.0001316
452	45504110 84063 379155 568175 3.197817934198 4.756417614198 2451 7507880 11055480 22749397680 2.1372530927376e+17
453	45588173 100269 379155 568175 3.197817934198 4.756417614198 2449 3.114440015547 4.672648268042 9539.1851864642 37652.342350864
454	45688442 100313 379155 568175 3.197817934198 4.756417614198 2450 3.156155706481 4.71460411423 9645.3022794697 38468.465955686
455	45788755 156726 379155 568175 3.197817934198 4.756417614198 4902 92672 95568 463749512 43876615451584
458	45945481 66542 379155 568175 3.197817934198 4.756417614198 1675 0.04147264 0.042290298176 70.186606009443 2.9410080979181
459	46012023 218 381174 416152 3.214455214198 3.502834734198 6 0.04147264 0.042196 0.25148816 0.010541446385536
462	46012241 29 410148 410148 3.453405134198 3.453405134198 1 66 66 66 4356
464	46012270 60 410148 410297 3.453405134198 3.454610734198 2 65 6600 6665 43564225
476	46012330 140335 379127 568150 3.197576814198 4.756176494198 4015 11203846 17016118 56651577730 8.1066143726183e+17
479	46152665 140525 379127 568150 3.197576814198 4.756176494198 4015 11048910 16861182 56029509690 7.9320308030132e+17
480	46293190 264800 379127 568150 3.197576814198 4.756176494198 8030 154936 156384 1249949800 1.9457139500128e+14
493	46557990 33024 379272 566717 3.198782414198 4.744361614198 1032 0.041 0.042 42.828 1.77762
494	46591014 164174 379127 568150 3.197576814198 4.756176494198 4015 0.041369148735 0.041999852736 168.09729782263 7.0378386502411
495	46755188 163293 379127 568150 3.197576814198 4.756176494198 4015 1.321011e-06 0.000528797388 0.873971298363 0.00027023535490545
504	46918481 168184 379127 568150 3.197576814198 4.756176494198 4015 35.745039593525 36.289999766452 143971.7618082 5162647.836358
508	47086665 140525 379127 568150 3.197576814198 4.756176494198 4015 11046792 16859064 56021005920 7.9296575730922e+17
509	47227190 164422 379127 568150 3.197576814198 4.756176494198 4015 3.114149294198 4.672266734198 15627.556950825 61639.633558683
510	47391612 164423 379127 568150 3.197576814198 4.756176494198 4015 3.155863054198 4.714221614198 15795.791285574 62956.577241579
511	47556035 264800 379127 568150 3.197576814198 4.756176494198 8030 154936 156384 1249949800 1.9457139500128e+14
514	47820835 114786 379127 568033 3.197576814198 4.755212014198 2911 0.041698758568 0.041980861826 121.97425714951 5.1108912719688
515	47935621 481 381202 416121 3.214696334198 3.502593614198 13 0.04171376 0.04195488 0.54396672 0.022761710330726
528	47936102 100201 379155 568175 3.197817934198 4.756417614198 2451 0.000523440636 0.000537291539 1.298901626357 0.00068836176852991
530	48036303 164177 379127 568150 3.197576814198 4.756176494198 4015 0.000319206395 0.000324072938 1.297047051105 0.00041901474207743
5	48200480 26237 568196 597714 4.756554169265 4.999948814198 1011 0 0 0 0
6	48226717 26237 568196 597714 4.756554169265 4.999948814198 1011 0 0 0 0
7	48252954 30281 568196 597714 4.756554169265 4.999948814198 1011 12000 12000 12132000 145584000000
8	48283235 423 570851 597721 4.778441713268 5 11 49217848.494762 49986374.578638 547285836.53226 2.7229712623656e+16
9	48283658 30281 568196 597714 4.756554169265 4.999948814198 1011 12000 12000 12132000 145584000000
10	48313939 434 570851 597721 4.778441713268 5 11 49217848.494762 49986374.578638 547285836.53226 2.7229712623656e+16
15	48314373 54496 568196 597715 4.756554169265 4.999950019798 2022 0 1 1011 1011
16	48368869 30281 568196 597714 4.756554169265 4.999948814198 1011 1507 1507 1523577 2296030539
17	48399150 28280 568206 597710 4.756658734198 4.999948814198 1010 59 59 59590 3515810
20	48427430 30281 568196 597714 4.756554169265 4.999948814198 1011 1500 1500 1516500 2274750000
21	48457711 28280 568206 597710 4.756658734198 4.999948814198 1010 52 52 52520 2731040
45	48485991 27270 568192 597699 4.756535119798 4.999825199798 1010 0 0 0 0
46	48513261 27270 568192 597699 4.756535119798 4.999825199798 1010 0 0 0 0
47	48540531 29290 568192 597699 4.756535119798 4.999825199798 1010 416 416 420160 174786560
48	48569821 438 568897 597721 4.762321999798 5 11 1710691.8071814 1725282.0172528 18963511.97971 32692446849717
49	48570259 29290 568192 597699 4.756535119798 4.999825199798 1010 416 416 420160 174786560
50	48599549 438 568897 597721 4.762321999798 5 11 1710691.8071814 1725282.0172528 18963511.97971 32692446849717
55	48599987 54540 568192 597700 4.756535119798 4.999825246998 2020 0 1 1010 1010
56	48654527 28280 568192 597699 4.756535119798 4.999825199798 1010 59 59 59590 3515810
57	48682807 30300 568188 597695 4.756535119798 4.999825199798 1010 1507 1507 1522070 2293759490
60	48713107 28280 568192 597699 4.756535119798 4.999825199798 1010 52 52 52520 2731040
61	48741387 30300 568188 597695 4.756535119798 4.999825199798 1010 1500 1500 1515000 2272500000
84	48771687 27270 568182 597693 4.756489966998 4.999780046998 1010 0 0 0 0
85	48798957 27243 568218 597693 4.756731086998 4.999780046998 1009 0 0 0 0
86	48826200 29261 568218 597693 4.756731086998 4.999780046998 1009 416 416 419744 174613504
87	48855461 437 569505 597721 4.767340366998 5 11 1701036.562549 1725282.0172528 18953856.735077 32659505777688
88	48855898 29290 568182 597693 4.756489966998 4.999780046998 1010 416 416 420160 174786560
89	48885188 437 569505 597721 4.767340366998 5 11 1701036.562549 1725282.0172528 18953856.735077 32659505777688
94	48885625 54540 568182 597694 4.756489966998 4.999780094198 2020 0 1 1010 1010
95	48940165 28280 568182 597693 4.756489966998 4.999780046998 1010 59 59 59590 3515810
96	48968445 30285 568185 597702 4.756529674152 4.999877619798 1011 1507 1507 1523577 2296030539
99	48998730 28280 568182 597693 4.756489966998 4.999780046998 1010 52 52 52520 2731040
100	49027010 31296 568185 597702 4.756529674152 4.999877619798 1011 1500 1500 1516500 2274750000
103	49058306 58564 568187 597705 4.756529674152 4.999878634198 2021 89 91 181970 16385510
104	49116870 68669 568187 597705 4.756529674152 4.999878634198 2021 1068000 1092000 2183640000 2.35951344e+15
105	49185539 40250 568201 597705 4.756588554198 4.999878634198 1010 0.021504228515 0.0217018144 21.878838569004 0.47394687249852
106	49225789 32307 568187 597704 4.756529674152 4.999877619798 1011 12000 12000 12132000 145584000000
107	49258096 448 570743 597721 4.777564979798 5 11 48645479.503229 49962029.36771 546325705.05235 2.7135078766024e+16
108	49258544 32320 568201 597705 4.756588554198 4.999878634198 1010 12000 12000 12120000 145440000000
109	49290864 449 568843 597721 4.761893194198 5 11 49481473.491786 49767750.497678 547158978.46856 2.7216706114909e+16
114	49291313 56560 568201 597705 4.756588554198 4.999878634198 2020 0 1 1010 1010
115	49347873 31310 568201 597705 4.756588554198 4.999878634198 1010 1507 1507 1522070 2293759490
116	49379183 29261 568216 597691 4.756731086998 4.999780046998 1009 59 59 59531 3512329
119	49408444 31310 568201 597705 4.756588554198 4.999878634198 1010 1500 1500 1515000 2272500000
120	49439754 29261 568216 597691 4.756731086998 4.999780046998 1009 52 52 52468 2728336
136	49469015 28280 568204 597708 4.756606314198 4.999896394198 1010 0 0 0 0
137	49497295 28280 568204 597708 4.756606314198 4.999896394198 1010 0 0 0 0
138	49525575 32320 568204 597708 4.756606314198 4.999896394198 1010 12000 12000 12120000 145440000000
139	49557895 449 568846 597721 4.761910954198 5 11 49523159.799831 49767750.497678 547200664.77661 2.722083325255e+16
140	49558344 32320 568204 597708 4.756606314198 4.999896394198 1010 12000 12000 12120000 145440000000
141	49590664 449 568846 597721 4.761910954198 5 11 49523159.799831 49767750.497678 547200664.77661 2.722083325255e+16
146	49591113 56560 568204 597709 4.756606314198 4.999897599798 2020 0 1 1010 1010
147	49647673 31310 568204 597708 4.756606314198 4.999896394198 1010 1507 1507 1522070 2293759490
148	49678983 29290 568212 597716 4.756703886998 4.999993966998 1010 59 59 59590 3515810
151	49708273 31310 568204 597708 4.756606314198 4.999896394198 1010 1500 1500 1515000 2272500000
152	49739583 29290 568212 597716 4.756703886998 4.999993966998 1010 52 52 52520 2731040
156	49768873 28280 568214 597718 4.756703886998 4.999993966998 1010 0 0 0 0
157	49797153 28280 568214 597718 4.756703886998 4.999993966998 1010 0 0 0 0
158	49825433 30300 568214 597718 4.756703886998 4.999993966998 1010 416 416 420160 174786560
159	49855733 449 569438 597721 4.766830926998 5 11 1724637.9616348 1725282.0172528 18977458.134163 32740356489271
160	49856182 30300 568214 597718 4.756703886998 4.999993966998 1010 416 416 420160 174786560
161	49886482 449 569438 597721 4.766830926998 5 11 1724637.9616348 1725282.0172528 18977458.134163 32740356489271
166	49886931 56532 568214 597718 4.756703886998 4.999993966998 2019 0 1 1010 1010
167	49943463 29290 568214 597718 4.756703886998 4.999993966998 1010 59 59 59590 3515810
168	49972753 31310 568202 597706 4.756606314198 4.999896394198 1010 1507 1507 1522070 2293759490
171	50004063 29290 568214 597718 4.756703886998 4.999993966998 1010 52 52 52520 2731040
172	50033353 31310 568202 597706 4.756606314198 4.999896394198 1010 1500 1500 1515000 2272500000
251	50064663 13824 568281 597697 4.757258479798 4.999825199798 384 211080766 211635350 81161494272 1.7154145707132e+19
253	50078487 13440 568281 597697 4.757258479798 4.999825199798 384 11080766 11635350 4361494272 4.954799833167e+16
254	50091927 13440 568281 597697 4.757258479798 4.999825199798 384 11079318 11633902 4360938240 4.9535368249392e+16
307	50105367 22536 568190 597668 4.756535119798 4.999584079798 626 216900278 217805278 136062839028 2.9573678907829e+19
309	50127903 21910 568190 597668 4.756535119798 4.999584079798 626 16900278 17805278 10862839028 1.8854329662936e+17
310	50149813 21910 568190 597668 4.756535119798 4.999584079798 626 16898830 17803830 10861932580 1.8851183916007e+17
364	50171723 35336 568194 597712 4.756554169265 4.999948814198 1011 28168614 29631094 29217752394 8.445693331453e+17
420	50207059 13321 568194 597680 4.756554169265 4.999707694198 381 11151718 11701958 4353625278 4.9757834116707e+16
423	50220380 13300 568267 597680 4.757140974198 4.999707694198 380 11059046 11607838 4306707960 4.8819412337693e+16
424	50233680 24338 568194 597680 4.756554169265 4.999707694198 761 94120 95568 72177008 6846023711744
437	50258018 1856 568734 597680 4.760998894198 4.999707694198 58 0.041 0.042 2.407 0.099905
438	50259874 15545 568267 597680 4.757140974198 4.999707694198 380 0.041718512631 0.041998302329 15.930316902179 0.66783017792659
439	50275419 15438 568267 597680 4.757140974198 4.999707694198 380 1.0508598e-05 0.000356307956 0.056420958197 1.051349231292e-05
448	50290857 15920 568267 597680 4.757140974198 4.999707694198 380 21.844997279229 21.991503097538 8316.2457666672 182000.19034011
452	50306777 13300 568267 597680 4.757140974198 4.999707694198 380 11056928 11605720 4305903120 4.8801170827426e+16
453	50320077 15567 568267 597680 4.757140974198 4.999707694198 380 4.673231214198 4.915797934198 1821.9907944475 8737.7750356574
454	50335644 15565 568267 597680 4.757140974198 4.999707694198 380 4.715186094198 4.957752814198 1837.9336143773 8891.3263862843
455	50351209 24338 568194 597680 4.756554169265 4.999707694198 761 94120 95568 72177008 6846023711744
458	50375547 10076 568267 597680 4.757140974198 4.999707694198 254 0.041949909067 0.041959934407 10.656505049834 0.44709094499858
476	50385623 22015 568208 597712 4.756658734198 4.999948814198 630 17017566 17928358 11007966060 1.9238546209901e+17
479	50407638 22050 568208 597712 4.756658734198 4.999948814198 630 16862630 17773422 10910356380 1.8898952489345e+17
480	50429688 41545 568208 597712 4.756658734198 4.999948814198 1260 154936 156384 196131600 30530505317760
493	50471233 4416 568233 597157 4.756899854198 4.995367534198 138 0.041 0.042 5.727 0.237705
494	50475649 25766 568208 597712 4.756658734198 4.999948814198 630 0.041596697563 0.041996938746 26.391251062883 1.1055567672963
495	50501415 25637 568208 597712 4.756658734198 4.999948814198 630 1.56838e-05 0.000471133252 0.121848681538 2.9599704333838e-05
504	50527052 26379 568208 597712 4.756658734198 4.999948814198 630 35.747519846855 36.091480474866 22578.043979503 809158.73476696
508	50553431 22050 568208 597712 4.756658734198 4.999948814198 630 16860512 17771304 10909022040 1.8894331144996e+17
509	50575481 25800 568208 597712 4.756658734198 4.999948814198 630 4.672748974198 4.916039054198 3020.3878055197 14483.682449428
510	50601281 25800 568208 597712 4.756658734198 4.999948814198 630 4.714703854198 4.957993934198 3046.8192889454 14738.230462274
511	50627081 41545 568208 597712 4.756658734198 4.999948814198 1260 154936 156384 196131600 30530505317760
514	50668626 18231 568233 597712 4.756899854198 4.999948814198 462 0.04194266953 0.041970254032 19.383063585667 0.81321029480229
528	50686857 15542 568267 597680 4.757140974198 4.999707694198 380 0.000526748897 0.000530281595 0.201140364938 0.00010646716183343
530	50702399 25748 568208 597712 4.756658734198 4.999948814198 630 0.000320962173 0.000324050453 0.203636196473 6.5821995461911e-05

