file 52158097 1764082483                                        
version 3
run mpTestBaseline-0-20251125-14:54:14-6984
attr configname mpTestBaseline
attr datetime 20251125-14:54:14
attr datetimef 20251125-145414
attr experiment mpTestBaseline
attr inifile mpTest.ini
attr iterationvars ""
attr iterationvarsd ""
attr iterationvarsf ""
attr measurement ""
attr network singledumbbell
attr processid 6984
attr repetition 0
attr replication #0
attr resultdir results
attr runnumber 0
attr seedset 0
config debug-on-errors true
config image-path ../../inet4.5/images
config extends General
config **.tcp.typename TcpPaced
config **.tcp.tcpAlgorithmClass "\"TcpCubic\""
config **.server[*].app[*].typename TcpSinkApp
config **.numberOfFlows 1
config *.client[0].app[0].connectAddress "\"server[0]\""
config *.client[0].app[0].tOpen 0.00846919251197291s
config *.client[0].app[0].tSend 0.00846919251197291s
config *.client[0].app[0].sendBytes 2GB
config **.ppp[*].queue.packetCapacity 100
config network singledumbbell
config sim-time-limit 5s
config record-eventlog false
config cmdenv-express-mode true
config cmdenv-redirect-output false
config cmdenv-output-file dctcpLog.txt
config **.client*.tcp.conn-8.cmdenv-log-level detail
config cmdenv-log-prefix "%t | %m |"
config cmdenv-event-banners false
config **.cmdenv-log-level off
config **.**.tcp.conn-*.cwnd:vector(removeRepeats).vector-recording true
config **.**.tcp.conn-*.rtt:vector(removeRepeats).vector-recording true
config **.**.tcp.conn-*.srtt:vector(removeRepeats).vector-recording true
config **.**.tcp.conn-*.throughput:vector(removeRepeats).vector-recording true
config **.**.tcp.conn-*.**.result-recording-modes vector(removeRepeats)
config **.**.queue.queueLength:vector(removeRepeats).vector-recording true
config **.**.queue.queueLength.result-recording-modes vector(removeRepeats)
config **.**.goodput:vector(removeRepeats).vector-recording true
config **.**.goodput.result-recording-modes vector(removeRepeats)
config **.**.bandwidth:vector(removeRepeats).vector-recording true
config **.**.bandwidth.result-recording-modes vector(removeRepeats)
config **.**.mbytesInFlight:vector(removeRepeats).vector-recording true
config **.**.mbytesInFlight.result-recording-modes vector(removeRepeats)
config **.scalar-recording false
config **.vector-recording true
config **.bin-recording false
config **.goodputInterval 1s
config **.throughputInterval 1s
config **.tcp.typename MpTcp
config **.tcp.tcpAlgorithmClass "\"MpTcpMetaCubic\""
config **.tcp.advertisedWindow 200000000
config **.tcp.windowScalingSupport true
config **.tcp.windowScalingFactor -1
config **.tcp.increasedIWEnabled true
config **.tcp.delayedAcksEnabled false
config **.tcp.timestampSupport true
config **.tcp.ecnWillingness false
config **.tcp.nagleEnabled true
config **.tcp.stopOperationTimeout 4000s
config **.tcp.mss 1448
config **.tcp.sackSupport true
config **.client[*].numApps 1
config **.client[*].app[*].typename MpTcpSessionApp
config *.client[*].app[0].tClose -1s
config *.client[*].app[0].sendBytes 2GB
config *.client[*].app[0].dataTransferMode "\"bytecount\""
config *.client[*].app[0].statistic-recording true
config **.server[*].numApps 1
config **.server[*].app[*].typename MpTcpSinkApp
config **.server[*].app[*].serverThreadModuleType "\"tcpgoodputapplications.applications.tcpapp.TcpGoodputSinkAppThread\""
config **.**.queue.typename DropTailQueue
config **.additiveIncreasePercent 0.05
config **.eta 0.95
config **.alpha 0.01
config **.fixedAvgRTTVal 0
config **.tcp.initialSsthresh 5792000

vector 0 singledumbbell.client[0].lo[0].lo rcvdPkFromHl:vector(packetBytes) ETV
attr interpolationmode none
attr recordingmode vector(packetBytes)
attr source packetReceivedFromUpper
attr title "packets received from higher layer, packetBytes"
vector 1 singledumbbell.client[0].lo[0].lo passedUpPk:vector(packetBytes) ETV
attr interpolationmode none
attr recordingmode vector(packetBytes)
attr source packetSentToUpper
attr title "packets passed to higher layer, packetBytes"
vector 2 singledumbbell.client[0].lo[0] packetDropInterfaceDown:vector(packetBytes) ETV
attr interpolationmode none
attr recordingmode vector(packetBytes)
attr source packetDropReasonIsInterfaceDown(packetDropped)
attr title "packet drops: interface down, packetBytes"
vector 3 singledumbbell.client[0].lo[0] packetDropNoCarrier:vector(packetBytes) ETV
attr interpolationmode none
attr recordingmode vector(packetBytes)
attr source packetDropReasonIsNoCarrier(packetDropped)
attr title "packet drops: no carrier, packetBytes"
vector 4 singledumbbell.client[0].ppp[0].queue queueLength:vector(removeRepeats) ETV
attr autoWarmupFilter false
attr interpolationmode sample-hold
attr recordingmode vector(removeRepeats)
attr source "warmup(atomic(constant0(packetPushEnded) + count(packetPushStarted) - count(packetPulled) - count(packetRemoved) - count(packetDropped)))"
attr title "queue length, removeRepeats"
attr unit pk
vector 5 singledumbbell.client[0].ppp[0].queue queueBitLength:vector ETV
attr autoWarmupFilter false
attr interpolationmode sample-hold
attr recordingmode vector
attr source "warmup(atomic(constant0(packetPushEnded) + sum(packetLength(packetPushStarted)) - sum(packetLength(packetPulled)) - sum(packetLength(packetRemoved)) - sum(packetLength(packetDropped))))"
attr title "queue bit length"
attr unit b
vector 6 singledumbbell.client[0].ppp[0].queue queueingTime:vector ETV
attr interpolationmode none
attr recordingmode vector
attr source queueingTime(packetPulled)
attr title "queueing times"
attr unit s
vector 7 singledumbbell.client[0].ppp[0].queue incomingPacketLengths:vector ETV
attr interpolationmode none
attr recordingmode vector
attr source packetLength(packetPushStarted)
attr title "incoming packet lengths"
attr unit b
vector 8 singledumbbell.client[0].ppp[0].queue incomingDataRate:vector ETV
attr interpolationmode linear
attr recordingmode vector
attr source throughput(packetPushStarted)
attr title "incoming datarate"
attr unit bps
vector 9 singledumbbell.client[0].ppp[0].queue outgoingPacketLengths:vector ETV
attr interpolationmode none
attr recordingmode vector
attr source packetLength(packetPulled)
attr title "outgoing packet lengths"
attr unit b
vector 10 singledumbbell.client[0].ppp[0].queue outgoingDataRate:vector ETV
attr interpolationmode linear
attr recordingmode vector
attr source throughput(packetPulled)
attr title "outgoing datarate"
attr unit bps
vector 11 singledumbbell.client[0].ppp[0].queue droppedPacketLengthsQueueOverflow:vector ETV
attr interpolationmode none
attr recordingmode vector
attr source packetLength(packetDropReasonIsQueueOverflow(packetDropped))
attr title "dropped packet lengths: queue overflow"
attr unit b
vector 12 singledumbbell.client[0].ppp[0].queue flowQueueingTime:vector ETV
attr interpolationmode none
attr recordingmode vector
attr source queueingTime(demuxFlow(packetPulled))
attr title "flow queueing times"
attr unit s
vector 13 singledumbbell.client[0].ppp[0].queue flowIncomingDataRate:vector ETV
attr interpolationmode linear
attr recordingmode vector
attr source throughput(flowPacketLength(demuxFlow(packetPushStarted)))
attr title "flow specific incoming data rate"
attr unit bps
vector 14 singledumbbell.client[0].ppp[0].queue flowOutgoingDataRate:vector ETV
attr interpolationmode linear
attr recordingmode vector
attr source throughput(flowPacketLength(demuxFlow(packetPulled)))
attr title "flow specific outgoing data rate"
attr unit bps
vector 15 singledumbbell.client[0].ppp[0].ppp transmissionState:vector ETV
attr interpolationmode sample-hold
attr recordingmode vector
attr source transmissionStateChanged
attr title "tx state"
vector 16 singledumbbell.client[0].ppp[0].ppp txPk:vector(packetBytes) ETV
attr interpolationmode none
attr recordingmode vector(packetBytes)
attr source packetSentToLower
attr title "packets transmitted, packetBytes"
vector 17 singledumbbell.client[0].ppp[0].ppp rxPkOk:vector(packetBytes) ETV
attr interpolationmode none
attr recordingmode vector(packetBytes)
attr source rxPkOk
attr title "packets received OK, packetBytes"
vector 18 singledumbbell.client[0].ppp[0].ppp packetDropIncorrectlyReceived:vector(packetBytes) ETV
attr interpolationmode none
attr recordingmode vector(packetBytes)
attr source packetDropReasonIsIncorrectlyReceived(packetDropped)
attr title "packet drop: incorrectly received, packetBytes"
vector 19 singledumbbell.client[0].ppp[0].ppp packetDropInterfaceDown:vector(packetBytes) ETV
attr interpolationmode none
attr recordingmode vector(packetBytes)
attr source packetDropReasonIsInterfaceDown(packetDropped)
attr title "packet drop: interface down, packetBytes"
vector 20 singledumbbell.client[0].ppp[0].ppp rcvdPkFromHl:vector(packetBytes) ETV
attr interpolationmode none
attr recordingmode vector(packetBytes)
attr source packetReceivedFromUpper
attr title "packets received from higher layer, packetBytes"
vector 21 singledumbbell.client[0].ppp[0].ppp passedUpPk:vector(packetBytes) ETV
attr interpolationmode none
attr recordingmode vector(packetBytes)
attr source packetSentToUpper
attr title "packets passed to higher layer, packetBytes"
vector 22 singledumbbell.client[0].ppp[0] packetDropInterfaceDown:vector(packetBytes) ETV
attr interpolationmode none
attr recordingmode vector(packetBytes)
attr source packetDropReasonIsInterfaceDown(packetDropped)
attr title "packet drops: interface down, packetBytes"
vector 23 singledumbbell.client[0].ppp[0] packetDropNoCarrier:vector(packetBytes) ETV
attr interpolationmode none
attr recordingmode vector(packetBytes)
attr source packetDropReasonIsNoCarrier(packetDropped)
attr title "packet drops: no carrier, packetBytes"
vector 24 singledumbbell.client[0].ipv4.ip packetDropAddressResolutionFailed:vector(packetBytes) ETV
attr interpolationmode none
attr recordingmode vector(packetBytes)
attr source packetDropReasonIsAddressResolutionFailed(packetDropped)
attr title "packet drop: address resolution failed, packetBytes"
vector 25 singledumbbell.client[0].ipv4.ip packetDropHopLimitReached:vector(packetBytes) ETV
attr interpolationmode none
attr recordingmode vector(packetBytes)
attr source packetDropReasonIsHopLimitReached(packetDropped)
attr title "packet drop: hop limit reached, packetBytes"
vector 26 singledumbbell.client[0].ipv4.ip packetDropForwardingDisabled:vector(packetBytes) ETV
attr interpolationmode none
attr recordingmode vector(packetBytes)
attr source packetDropReasonIsForwardingDisabled(packetDropped)
attr title "packet drop: forwarding disabled, packetBytes"
vector 27 singledumbbell.client[0].ipv4.ip packetDropNoInterfaceFound:vector(packetBytes) ETV
attr interpolationmode none
attr recordingmode vector(packetBytes)
attr source packetDropReasonIsNoInterfaceFound(packetDropped)
attr title "packet drop: no interface found, packetBytes"
vector 28 singledumbbell.client[0].ipv4.ip packetDropNoRouteFound:vector(packetBytes) ETV
attr interpolationmode none
attr recordingmode vector(packetBytes)
attr source packetDropReasonIsNoRouteFound(packetDropped)
attr title "packet drop: no route found, packetBytes"
vector 29 singledumbbell.client[0].ipv4.ip packetDropUndefined:vector(packetBytes) ETV
attr interpolationmode none
attr recordingmode vector(packetBytes)
attr source packetDropReasonIsUndefined(packetDropped)
attr title "packet drop: undefined, packetBytes"
vector 30 singledumbbell.client[0].ipv4.arp arpRequestSent:vector(packetBytes) ETV
attr recordingmode vector(packetBytes)
attr source arpRequestSent
attr title "ARP request sent, packetBytes"
vector 31 singledumbbell.client[0].ipv4.arp arpReplySent:vector(packetBytes) ETV
attr recordingmode vector(packetBytes)
attr source arpReplySent
attr title "ARP replies sent, packetBytes"
vector 32 singledumbbell.client[0].udp packetSent:vector(packetBytes) ETV
attr interpolationmode none
attr recordingmode vector(packetBytes)
attr source packetSent
attr title "packets sent, packetBytes"
vector 33 singledumbbell.client[0].udp packetReceived:vector(packetBytes) ETV
attr interpolationmode none
attr recordingmode vector(packetBytes)
attr source packetReceived
attr title "packets received, packetBytes"
vector 34 singledumbbell.client[0].udp passedUpPk:vector(count) ETV
attr interpolationmode none
attr recordingmode vector(count)
attr source packetSentToUpper
attr title "packets passed up, count"
vector 35 singledumbbell.client[0].udp droppedPkWrongPort:vector(count) ETV
attr interpolationmode none
attr recordingmode vector(count)
attr source packetDropReasonIsNoPortFound(packetDropped)
attr title "packets dropped (wrong port), count"
vector 36 singledumbbell.client[0].udp droppedPkBadChecksum:vector(count) ETV
attr interpolationmode none
attr recordingmode vector(count)
attr source packetDropReasonIsIncorrectlyReceived(packetDropped)
attr title "packets dropped (checksum error), count"
vector 37 singledumbbell.client[0].app[0] packetReceived:vector(packetBytes) ETV
attr interpolationmode none
attr recordingmode vector(packetBytes)
attr source packetReceived
attr title "packets received, packetBytes"
vector 38 singledumbbell.client[0].app[0] packetSent:vector(packetBytes) ETV
attr interpolationmode none
attr recordingmode vector(packetBytes)
attr source packetSent
attr title "packets sent, packetBytes"
vector 39 singledumbbell.client[0].app[0] endToEndDelay:vector ETV
attr interpolationmode none
attr recordingmode vector
attr source dataAge(packetReceived)
attr title "end-to-end delay"
attr unit s
vector 40 singledumbbell.server[0].lo[0].lo rcvdPkFromHl:vector(packetBytes) ETV
attr interpolationmode none
attr recordingmode vector(packetBytes)
attr source packetReceivedFromUpper
attr title "packets received from higher layer, packetBytes"
vector 41 singledumbbell.server[0].lo[0].lo passedUpPk:vector(packetBytes) ETV
attr interpolationmode none
attr recordingmode vector(packetBytes)
attr source packetSentToUpper
attr title "packets passed to higher layer, packetBytes"
vector 42 singledumbbell.server[0].lo[0] packetDropInterfaceDown:vector(packetBytes) ETV
attr interpolationmode none
attr recordingmode vector(packetBytes)
attr source packetDropReasonIsInterfaceDown(packetDropped)
attr title "packet drops: interface down, packetBytes"
vector 43 singledumbbell.server[0].lo[0] packetDropNoCarrier:vector(packetBytes) ETV
attr interpolationmode none
attr recordingmode vector(packetBytes)
attr source packetDropReasonIsNoCarrier(packetDropped)
attr title "packet drops: no carrier, packetBytes"
vector 44 singledumbbell.server[0].ppp[0].queue queueLength:vector(removeRepeats) ETV
attr autoWarmupFilter false
attr interpolationmode sample-hold
attr recordingmode vector(removeRepeats)
attr source "warmup(atomic(constant0(packetPushEnded) + count(packetPushStarted) - count(packetPulled) - count(packetRemoved) - count(packetDropped)))"
attr title "queue length, removeRepeats"
attr unit pk
vector 45 singledumbbell.server[0].ppp[0].queue queueBitLength:vector ETV
attr autoWarmupFilter false
attr interpolationmode sample-hold
attr recordingmode vector
attr source "warmup(atomic(constant0(packetPushEnded) + sum(packetLength(packetPushStarted)) - sum(packetLength(packetPulled)) - sum(packetLength(packetRemoved)) - sum(packetLength(packetDropped))))"
attr title "queue bit length"
attr unit b
vector 46 singledumbbell.server[0].ppp[0].queue queueingTime:vector ETV
attr interpolationmode none
attr recordingmode vector
attr source queueingTime(packetPulled)
attr title "queueing times"
attr unit s
vector 47 singledumbbell.server[0].ppp[0].queue incomingPacketLengths:vector ETV
attr interpolationmode none
attr recordingmode vector
attr source packetLength(packetPushStarted)
attr title "incoming packet lengths"
attr unit b
vector 48 singledumbbell.server[0].ppp[0].queue incomingDataRate:vector ETV
attr interpolationmode linear
attr recordingmode vector
attr source throughput(packetPushStarted)
attr title "incoming datarate"
attr unit bps
vector 49 singledumbbell.server[0].ppp[0].queue outgoingPacketLengths:vector ETV
attr interpolationmode none
attr recordingmode vector
attr source packetLength(packetPulled)
attr title "outgoing packet lengths"
attr unit b
vector 50 singledumbbell.server[0].ppp[0].queue outgoingDataRate:vector ETV
attr interpolationmode linear
attr recordingmode vector
attr source throughput(packetPulled)
attr title "outgoing datarate"
attr unit bps
vector 51 singledumbbell.server[0].ppp[0].queue droppedPacketLengthsQueueOverflow:vector ETV
attr interpolationmode none
attr recordingmode vector
attr source packetLength(packetDropReasonIsQueueOverflow(packetDropped))
attr title "dropped packet lengths: queue overflow"
attr unit b
vector 52 singledumbbell.server[0].ppp[0].queue flowQueueingTime:vector ETV
attr interpolationmode none
attr recordingmode vector
attr source queueingTime(demuxFlow(packetPulled))
attr title "flow queueing times"
attr unit s
vector 53 singledumbbell.server[0].ppp[0].queue flowIncomingDataRate:vector ETV
attr interpolationmode linear
attr recordingmode vector
attr source throughput(flowPacketLength(demuxFlow(packetPushStarted)))
attr title "flow specific incoming data rate"
attr unit bps
vector 54 singledumbbell.server[0].ppp[0].queue flowOutgoingDataRate:vector ETV
attr interpolationmode linear
attr recordingmode vector
attr source throughput(flowPacketLength(demuxFlow(packetPulled)))
attr title "flow specific outgoing data rate"
attr unit bps
vector 55 singledumbbell.server[0].ppp[0].ppp transmissionState:vector ETV
attr interpolationmode sample-hold
attr recordingmode vector
attr source transmissionStateChanged
attr title "tx state"
vector 56 singledumbbell.server[0].ppp[0].ppp txPk:vector(packetBytes) ETV
attr interpolationmode none
attr recordingmode vector(packetBytes)
attr source packetSentToLower
attr title "packets transmitted, packetBytes"
vector 57 singledumbbell.server[0].ppp[0].ppp rxPkOk:vector(packetBytes) ETV
attr interpolationmode none
attr recordingmode vector(packetBytes)
attr source rxPkOk
attr title "packets received OK, packetBytes"
vector 58 singledumbbell.server[0].ppp[0].ppp packetDropIncorrectlyReceived:vector(packetBytes) ETV
attr interpolationmode none
attr recordingmode vector(packetBytes)
attr source packetDropReasonIsIncorrectlyReceived(packetDropped)
attr title "packet drop: incorrectly received, packetBytes"
vector 59 singledumbbell.server[0].ppp[0].ppp packetDropInterfaceDown:vector(packetBytes) ETV
attr interpolationmode none
attr recordingmode vector(packetBytes)
attr source packetDropReasonIsInterfaceDown(packetDropped)
attr title "packet drop: interface down, packetBytes"
vector 60 singledumbbell.server[0].ppp[0].ppp rcvdPkFromHl:vector(packetBytes) ETV
attr interpolationmode none
attr recordingmode vector(packetBytes)
attr source packetReceivedFromUpper
attr title "packets received from higher layer, packetBytes"
vector 61 singledumbbell.server[0].ppp[0].ppp passedUpPk:vector(packetBytes) ETV
attr interpolationmode none
attr recordingmode vector(packetBytes)
attr source packetSentToUpper
attr title "packets passed to higher layer, packetBytes"
vector 62 singledumbbell.server[0].ppp[0] packetDropInterfaceDown:vector(packetBytes) ETV
attr interpolationmode none
attr recordingmode vector(packetBytes)
attr source packetDropReasonIsInterfaceDown(packetDropped)
attr title "packet drops: interface down, packetBytes"
vector 63 singledumbbell.server[0].ppp[0] packetDropNoCarrier:vector(packetBytes) ETV
attr interpolationmode none
attr recordingmode vector(packetBytes)
attr source packetDropReasonIsNoCarrier(packetDropped)
attr title "packet drops: no carrier, packetBytes"
vector 64 singledumbbell.server[0].ipv4.ip packetDropAddressResolutionFailed:vector(packetBytes) ETV
attr interpolationmode none
attr recordingmode vector(packetBytes)
attr source packetDropReasonIsAddressResolutionFailed(packetDropped)
attr title "packet drop: address resolution failed, packetBytes"
vector 65 singledumbbell.server[0].ipv4.ip packetDropHopLimitReached:vector(packetBytes) ETV
attr interpolationmode none
attr recordingmode vector(packetBytes)
attr source packetDropReasonIsHopLimitReached(packetDropped)
attr title "packet drop: hop limit reached, packetBytes"
vector 66 singledumbbell.server[0].ipv4.ip packetDropForwardingDisabled:vector(packetBytes) ETV
attr interpolationmode none
attr recordingmode vector(packetBytes)
attr source packetDropReasonIsForwardingDisabled(packetDropped)
attr title "packet drop: forwarding disabled, packetBytes"
vector 67 singledumbbell.server[0].ipv4.ip packetDropNoInterfaceFound:vector(packetBytes) ETV
attr interpolationmode none
attr recordingmode vector(packetBytes)
attr source packetDropReasonIsNoInterfaceFound(packetDropped)
attr title "packet drop: no interface found, packetBytes"
vector 68 singledumbbell.server[0].ipv4.ip packetDropNoRouteFound:vector(packetBytes) ETV
attr interpolationmode none
attr recordingmode vector(packetBytes)
attr source packetDropReasonIsNoRouteFound(packetDropped)
attr title "packet drop: no route found, packetBytes"
vector 69 singledumbbell.server[0].ipv4.ip packetDropUndefined:vector(packetBytes) ETV
attr interpolationmode none
attr recordingmode vector(packetBytes)
attr source packetDropReasonIsUndefined(packetDropped)
attr title "packet drop: undefined, packetBytes"
vector 70 singledumbbell.server[0].ipv4.arp arpRequestSent:vector(packetBytes) ETV
attr recordingmode vector(packetBytes)
attr source arpRequestSent
attr title "ARP request sent, packetBytes"
vector 71 singledumbbell.server[0].ipv4.arp arpReplySent:vector(packetBytes) ETV
attr recordingmode vector(packetBytes)
attr source arpReplySent
attr title "ARP replies sent, packetBytes"
vector 72 singledumbbell.server[0].udp packetSent:vector(packetBytes) ETV
attr interpolationmode none
attr recordingmode vector(packetBytes)
attr source packetSent
attr title "packets sent, packetBytes"
vector 73 singledumbbell.server[0].udp packetReceived:vector(packetBytes) ETV
attr interpolationmode none
attr recordingmode vector(packetBytes)
attr source packetReceived
attr title "packets received, packetBytes"
vector 74 singledumbbell.server[0].udp passedUpPk:vector(count) ETV
attr interpolationmode none
attr recordingmode vector(count)
attr source packetSentToUpper
attr title "packets passed up, count"
vector 75 singledumbbell.server[0].udp droppedPkWrongPort:vector(count) ETV
attr interpolationmode none
attr recordingmode vector(count)
attr source packetDropReasonIsNoPortFound(packetDropped)
attr title "packets dropped (wrong port), count"
vector 76 singledumbbell.server[0].udp droppedPkBadChecksum:vector(count) ETV
attr interpolationmode none
attr recordingmode vector(count)
attr source packetDropReasonIsIncorrectlyReceived(packetDropped)
attr title "packets dropped (checksum error), count"
vector 77 singledumbbell.server[0].app[0] packetReceived:vector(packetBytes) ETV
attr checkSignals false
attr interpolationmode none
attr recordingmode vector(packetBytes)
attr source packetReceived
attr title "packets received, packetBytes"
vector 78 singledumbbell.server[0].app[0] endToEndDelay:vector ETV
attr checkSignals false
attr interpolationmode none
attr recordingmode vector
attr source dataAge(packetReceived)
attr title "end-to-end delay"
attr unit s
vector 79 singledumbbell.router1.lo[0].lo rcvdPkFromHl:vector(packetBytes) ETV
attr interpolationmode none
attr recordingmode vector(packetBytes)
attr source packetReceivedFromUpper
attr title "packets received from higher layer, packetBytes"
vector 80 singledumbbell.router1.lo[0].lo passedUpPk:vector(packetBytes) ETV
attr interpolationmode none
attr recordingmode vector(packetBytes)
attr source packetSentToUpper
attr title "packets passed to higher layer, packetBytes"
vector 81 singledumbbell.router1.lo[0] packetDropInterfaceDown:vector(packetBytes) ETV
attr interpolationmode none
attr recordingmode vector(packetBytes)
attr source packetDropReasonIsInterfaceDown(packetDropped)
attr title "packet drops: interface down, packetBytes"
vector 82 singledumbbell.router1.lo[0] packetDropNoCarrier:vector(packetBytes) ETV
attr interpolationmode none
attr recordingmode vector(packetBytes)
attr source packetDropReasonIsNoCarrier(packetDropped)
attr title "packet drops: no carrier, packetBytes"
vector 83 singledumbbell.router1.ppp[0].queue queueLength:vector(removeRepeats) ETV
attr autoWarmupFilter false
attr interpolationmode sample-hold
attr recordingmode vector(removeRepeats)
attr source "warmup(atomic(constant0(packetPushEnded) + count(packetPushStarted) - count(packetPulled) - count(packetRemoved) - count(packetDropped)))"
attr title "queue length, removeRepeats"
attr unit pk
vector 84 singledumbbell.router1.ppp[0].queue queueBitLength:vector ETV
attr autoWarmupFilter false
attr interpolationmode sample-hold
attr recordingmode vector
attr source "warmup(atomic(constant0(packetPushEnded) + sum(packetLength(packetPushStarted)) - sum(packetLength(packetPulled)) - sum(packetLength(packetRemoved)) - sum(packetLength(packetDropped))))"
attr title "queue bit length"
attr unit b
vector 85 singledumbbell.router1.ppp[0].queue queueingTime:vector ETV
attr interpolationmode none
attr recordingmode vector
attr source queueingTime(packetPulled)
attr title "queueing times"
attr unit s
vector 86 singledumbbell.router1.ppp[0].queue incomingPacketLengths:vector ETV
attr interpolationmode none
attr recordingmode vector
attr source packetLength(packetPushStarted)
attr title "incoming packet lengths"
attr unit b
vector 87 singledumbbell.router1.ppp[0].queue incomingDataRate:vector ETV
attr interpolationmode linear
attr recordingmode vector
attr source throughput(packetPushStarted)
attr title "incoming datarate"
attr unit bps
vector 88 singledumbbell.router1.ppp[0].queue outgoingPacketLengths:vector ETV
attr interpolationmode none
attr recordingmode vector
attr source packetLength(packetPulled)
attr title "outgoing packet lengths"
attr unit b
vector 89 singledumbbell.router1.ppp[0].queue outgoingDataRate:vector ETV
attr interpolationmode linear
attr recordingmode vector
attr source throughput(packetPulled)
attr title "outgoing datarate"
attr unit bps
vector 90 singledumbbell.router1.ppp[0].queue droppedPacketLengthsQueueOverflow:vector ETV
attr interpolationmode none
attr recordingmode vector
attr source packetLength(packetDropReasonIsQueueOverflow(packetDropped))
attr title "dropped packet lengths: queue overflow"
attr unit b
vector 91 singledumbbell.router1.ppp[0].queue flowQueueingTime:vector ETV
attr interpolationmode none
attr recordingmode vector
attr source queueingTime(demuxFlow(packetPulled))
attr title "flow queueing times"
attr unit s
vector 92 singledumbbell.router1.ppp[0].queue flowIncomingDataRate:vector ETV
attr interpolationmode linear
attr recordingmode vector
attr source throughput(flowPacketLength(demuxFlow(packetPushStarted)))
attr title "flow specific incoming data rate"
attr unit bps
vector 93 singledumbbell.router1.ppp[0].queue flowOutgoingDataRate:vector ETV
attr interpolationmode linear
attr recordingmode vector
attr source throughput(flowPacketLength(demuxFlow(packetPulled)))
attr title "flow specific outgoing data rate"
attr unit bps
vector 94 singledumbbell.router1.ppp[0].ppp transmissionState:vector ETV
attr interpolationmode sample-hold
attr recordingmode vector
attr source transmissionStateChanged
attr title "tx state"
vector 95 singledumbbell.router1.ppp[0].ppp txPk:vector(packetBytes) ETV
attr interpolationmode none
attr recordingmode vector(packetBytes)
attr source packetSentToLower
attr title "packets transmitted, packetBytes"
vector 96 singledumbbell.router1.ppp[0].ppp rxPkOk:vector(packetBytes) ETV
attr interpolationmode none
attr recordingmode vector(packetBytes)
attr source rxPkOk
attr title "packets received OK, packetBytes"
vector 97 singledumbbell.router1.ppp[0].ppp packetDropIncorrectlyReceived:vector(packetBytes) ETV
attr interpolationmode none
attr recordingmode vector(packetBytes)
attr source packetDropReasonIsIncorrectlyReceived(packetDropped)
attr title "packet drop: incorrectly received, packetBytes"
vector 98 singledumbbell.router1.ppp[0].ppp packetDropInterfaceDown:vector(packetBytes) ETV
attr interpolationmode none
attr recordingmode vector(packetBytes)
attr source packetDropReasonIsInterfaceDown(packetDropped)
attr title "packet drop: interface down, packetBytes"
vector 99 singledumbbell.router1.ppp[0].ppp rcvdPkFromHl:vector(packetBytes) ETV
attr interpolationmode none
attr recordingmode vector(packetBytes)
attr source packetReceivedFromUpper
attr title "packets received from higher layer, packetBytes"
vector 100 singledumbbell.router1.ppp[0].ppp passedUpPk:vector(packetBytes) ETV
attr interpolationmode none
attr recordingmode vector(packetBytes)
attr source packetSentToUpper
attr title "packets passed to higher layer, packetBytes"
vector 101 singledumbbell.router1.ppp[0] packetDropInterfaceDown:vector(packetBytes) ETV
attr interpolationmode none
attr recordingmode vector(packetBytes)
attr source packetDropReasonIsInterfaceDown(packetDropped)
attr title "packet drops: interface down, packetBytes"
vector 102 singledumbbell.router1.ppp[0] packetDropNoCarrier:vector(packetBytes) ETV
attr interpolationmode none
attr recordingmode vector(packetBytes)
attr source packetDropReasonIsNoCarrier(packetDropped)
attr title "packet drops: no carrier, packetBytes"
vector 103 singledumbbell.router1.ppp[1].queue queueLength:vector(removeRepeats) ETV
attr autoWarmupFilter false
attr interpolationmode sample-hold
attr recordingmode vector(removeRepeats)
attr source "warmup(atomic(constant0(packetPushEnded) + count(packetPushStarted) - count(packetPulled) - count(packetRemoved) - count(packetDropped)))"
attr title "queue length, removeRepeats"
attr unit pk
vector 104 singledumbbell.router1.ppp[1].queue queueBitLength:vector ETV
attr autoWarmupFilter false
attr interpolationmode sample-hold
attr recordingmode vector
attr source "warmup(atomic(constant0(packetPushEnded) + sum(packetLength(packetPushStarted)) - sum(packetLength(packetPulled)) - sum(packetLength(packetRemoved)) - sum(packetLength(packetDropped))))"
attr title "queue bit length"
attr unit b
vector 105 singledumbbell.router1.ppp[1].queue queueingTime:vector ETV
attr interpolationmode none
attr recordingmode vector
attr source queueingTime(packetPulled)
attr title "queueing times"
attr unit s
vector 106 singledumbbell.router1.ppp[1].queue incomingPacketLengths:vector ETV
attr interpolationmode none
attr recordingmode vector
attr source packetLength(packetPushStarted)
attr title "incoming packet lengths"
attr unit b
vector 107 singledumbbell.router1.ppp[1].queue incomingDataRate:vector ETV
attr interpolationmode linear
attr recordingmode vector
attr source throughput(packetPushStarted)
attr title "incoming datarate"
attr unit bps
vector 108 singledumbbell.router1.ppp[1].queue outgoingPacketLengths:vector ETV
attr interpolationmode none
attr recordingmode vector
attr source packetLength(packetPulled)
attr title "outgoing packet lengths"
attr unit b
vector 109 singledumbbell.router1.ppp[1].queue outgoingDataRate:vector ETV
attr interpolationmode linear
attr recordingmode vector
attr source throughput(packetPulled)
attr title "outgoing datarate"
attr unit bps
vector 110 singledumbbell.router1.ppp[1].queue droppedPacketLengthsQueueOverflow:vector ETV
attr interpolationmode none
attr recordingmode vector
attr source packetLength(packetDropReasonIsQueueOverflow(packetDropped))
attr title "dropped packet lengths: queue overflow"
attr unit b
vector 111 singledumbbell.router1.ppp[1].queue flowQueueingTime:vector ETV
attr interpolationmode none
attr recordingmode vector
attr source queueingTime(demuxFlow(packetPulled))
attr title "flow queueing times"
attr unit s
vector 112 singledumbbell.router1.ppp[1].queue flowIncomingDataRate:vector ETV
attr interpolationmode linear
attr recordingmode vector
attr source throughput(flowPacketLength(demuxFlow(packetPushStarted)))
attr title "flow specific incoming data rate"
attr unit bps
vector 113 singledumbbell.router1.ppp[1].queue flowOutgoingDataRate:vector ETV
attr interpolationmode linear
attr recordingmode vector
attr source throughput(flowPacketLength(demuxFlow(packetPulled)))
attr title "flow specific outgoing data rate"
attr unit bps
vector 114 singledumbbell.router1.ppp[1].ppp transmissionState:vector ETV
attr interpolationmode sample-hold
attr recordingmode vector
attr source transmissionStateChanged
attr title "tx state"
vector 115 singledumbbell.router1.ppp[1].ppp txPk:vector(packetBytes) ETV
attr interpolationmode none
attr recordingmode vector(packetBytes)
attr source packetSentToLower
attr title "packets transmitted, packetBytes"
vector 116 singledumbbell.router1.ppp[1].ppp rxPkOk:vector(packetBytes) ETV
attr interpolationmode none
attr recordingmode vector(packetBytes)
attr source rxPkOk
attr title "packets received OK, packetBytes"
vector 117 singledumbbell.router1.ppp[1].ppp packetDropIncorrectlyReceived:vector(packetBytes) ETV
attr interpolationmode none
attr recordingmode vector(packetBytes)
attr source packetDropReasonIsIncorrectlyReceived(packetDropped)
attr title "packet drop: incorrectly received, packetBytes"
vector 118 singledumbbell.router1.ppp[1].ppp packetDropInterfaceDown:vector(packetBytes) ETV
attr interpolationmode none
attr recordingmode vector(packetBytes)
attr source packetDropReasonIsInterfaceDown(packetDropped)
attr title "packet drop: interface down, packetBytes"
vector 119 singledumbbell.router1.ppp[1].ppp rcvdPkFromHl:vector(packetBytes) ETV
attr interpolationmode none
attr recordingmode vector(packetBytes)
attr source packetReceivedFromUpper
attr title "packets received from higher layer, packetBytes"
vector 120 singledumbbell.router1.ppp[1].ppp passedUpPk:vector(packetBytes) ETV
attr interpolationmode none
attr recordingmode vector(packetBytes)
attr source packetSentToUpper
attr title "packets passed to higher layer, packetBytes"
vector 121 singledumbbell.router1.ppp[1] packetDropInterfaceDown:vector(packetBytes) ETV
attr interpolationmode none
attr recordingmode vector(packetBytes)
attr source packetDropReasonIsInterfaceDown(packetDropped)
attr title "packet drops: interface down, packetBytes"
vector 122 singledumbbell.router1.ppp[1] packetDropNoCarrier:vector(packetBytes) ETV
attr interpolationmode none
attr recordingmode vector(packetBytes)
attr source packetDropReasonIsNoCarrier(packetDropped)
attr title "packet drops: no carrier, packetBytes"
vector 123 singledumbbell.router1.ipv4.ip packetDropAddressResolutionFailed:vector(packetBytes) ETV
attr interpolationmode none
attr recordingmode vector(packetBytes)
attr source packetDropReasonIsAddressResolutionFailed(packetDropped)
attr title "packet drop: address resolution failed, packetBytes"
vector 124 singledumbbell.router1.ipv4.ip packetDropHopLimitReached:vector(packetBytes) ETV
attr interpolationmode none
attr recordingmode vector(packetBytes)
attr source packetDropReasonIsHopLimitReached(packetDropped)
attr title "packet drop: hop limit reached, packetBytes"
vector 125 singledumbbell.router1.ipv4.ip packetDropForwardingDisabled:vector(packetBytes) ETV
attr interpolationmode none
attr recordingmode vector(packetBytes)
attr source packetDropReasonIsForwardingDisabled(packetDropped)
attr title "packet drop: forwarding disabled, packetBytes"
vector 126 singledumbbell.router1.ipv4.ip packetDropNoInterfaceFound:vector(packetBytes) ETV
attr interpolationmode none
attr recordingmode vector(packetBytes)
attr source packetDropReasonIsNoInterfaceFound(packetDropped)
attr title "packet drop: no interface found, packetBytes"
vector 127 singledumbbell.router1.ipv4.ip packetDropNoRouteFound:vector(packetBytes) ETV
attr interpolationmode none
attr recordingmode vector(packetBytes)
attr source packetDropReasonIsNoRouteFound(packetDropped)
attr title "packet drop: no route found, packetBytes"
vector 128 singledumbbell.router1.ipv4.ip packetDropUndefined:vector(packetBytes) ETV
attr interpolationmode none
attr recordingmode vector(packetBytes)
attr source packetDropReasonIsUndefined(packetDropped)
attr title "packet drop: undefined, packetBytes"
vector 129 singledumbbell.router1.ipv4.arp arpRequestSent:vector(packetBytes) ETV
attr recordingmode vector(packetBytes)
attr source arpRequestSent
attr title "ARP request sent, packetBytes"
vector 130 singledumbbell.router1.ipv4.arp arpReplySent:vector(packetBytes) ETV
attr recordingmode vector(packetBytes)
attr source arpReplySent
attr title "ARP replies sent, packetBytes"
vector 131 singledumbbell.router2.lo[0].lo rcvdPkFromHl:vector(packetBytes) ETV
attr interpolationmode none
attr recordingmode vector(packetBytes)
attr source packetReceivedFromUpper
attr title "packets received from higher layer, packetBytes"
vector 132 singledumbbell.router2.lo[0].lo passedUpPk:vector(packetBytes) ETV
attr interpolationmode none
attr recordingmode vector(packetBytes)
attr source packetSentToUpper
attr title "packets passed to higher layer, packetBytes"
vector 133 singledumbbell.router2.lo[0] packetDropInterfaceDown:vector(packetBytes) ETV
attr interpolationmode none
attr recordingmode vector(packetBytes)
attr source packetDropReasonIsInterfaceDown(packetDropped)
attr title "packet drops: interface down, packetBytes"
vector 134 singledumbbell.router2.lo[0] packetDropNoCarrier:vector(packetBytes) ETV
attr interpolationmode none
attr recordingmode vector(packetBytes)
attr source packetDropReasonIsNoCarrier(packetDropped)
attr title "packet drops: no carrier, packetBytes"
vector 135 singledumbbell.router2.ppp[0].queue queueLength:vector(removeRepeats) ETV
attr autoWarmupFilter false
attr interpolationmode sample-hold
attr recordingmode vector(removeRepeats)
attr source "warmup(atomic(constant0(packetPushEnded) + count(packetPushStarted) - count(packetPulled) - count(packetRemoved) - count(packetDropped)))"
attr title "queue length, removeRepeats"
attr unit pk
vector 136 singledumbbell.router2.ppp[0].queue queueBitLength:vector ETV
attr autoWarmupFilter false
attr interpolationmode sample-hold
attr recordingmode vector
attr source "warmup(atomic(constant0(packetPushEnded) + sum(packetLength(packetPushStarted)) - sum(packetLength(packetPulled)) - sum(packetLength(packetRemoved)) - sum(packetLength(packetDropped))))"
attr title "queue bit length"
attr unit b
vector 137 singledumbbell.router2.ppp[0].queue queueingTime:vector ETV
attr interpolationmode none
attr recordingmode vector
attr source queueingTime(packetPulled)
attr title "queueing times"
attr unit s
vector 138 singledumbbell.router2.ppp[0].queue incomingPacketLengths:vector ETV
attr interpolationmode none
attr recordingmode vector
attr source packetLength(packetPushStarted)
attr title "incoming packet lengths"
attr unit b
vector 139 singledumbbell.router2.ppp[0].queue incomingDataRate:vector ETV
attr interpolationmode linear
attr recordingmode vector
attr source throughput(packetPushStarted)
attr title "incoming datarate"
attr unit bps
vector 140 singledumbbell.router2.ppp[0].queue outgoingPacketLengths:vector ETV
attr interpolationmode none
attr recordingmode vector
attr source packetLength(packetPulled)
attr title "outgoing packet lengths"
attr unit b
vector 141 singledumbbell.router2.ppp[0].queue outgoingDataRate:vector ETV
attr interpolationmode linear
attr recordingmode vector
attr source throughput(packetPulled)
attr title "outgoing datarate"
attr unit bps
vector 142 singledumbbell.router2.ppp[0].queue droppedPacketLengthsQueueOverflow:vector ETV
attr interpolationmode none
attr recordingmode vector
attr source packetLength(packetDropReasonIsQueueOverflow(packetDropped))
attr title "dropped packet lengths: queue overflow"
attr unit b
vector 143 singledumbbell.router2.ppp[0].queue flowQueueingTime:vector ETV
attr interpolationmode none
attr recordingmode vector
attr source queueingTime(demuxFlow(packetPulled))
attr title "flow queueing times"
attr unit s
vector 144 singledumbbell.router2.ppp[0].queue flowIncomingDataRate:vector ETV
attr interpolationmode linear
attr recordingmode vector
attr source throughput(flowPacketLength(demuxFlow(packetPushStarted)))
attr title "flow specific incoming data rate"
attr unit bps
vector 145 singledumbbell.router2.ppp[0].queue flowOutgoingDataRate:vector ETV
attr interpolationmode linear
attr recordingmode vector
attr source throughput(flowPacketLength(demuxFlow(packetPulled)))
attr title "flow specific outgoing data rate"
attr unit bps
vector 146 singledumbbell.router2.ppp[0].ppp transmissionState:vector ETV
attr interpolationmode sample-hold
attr recordingmode vector
attr source transmissionStateChanged
attr title "tx state"
vector 147 singledumbbell.router2.ppp[0].ppp txPk:vector(packetBytes) ETV
attr interpolationmode none
attr recordingmode vector(packetBytes)
attr source packetSentToLower
attr title "packets transmitted, packetBytes"
vector 148 singledumbbell.router2.ppp[0].ppp rxPkOk:vector(packetBytes) ETV
attr interpolationmode none
attr recordingmode vector(packetBytes)
attr source rxPkOk
attr title "packets received OK, packetBytes"
vector 149 singledumbbell.router2.ppp[0].ppp packetDropIncorrectlyReceived:vector(packetBytes) ETV
attr interpolationmode none
attr recordingmode vector(packetBytes)
attr source packetDropReasonIsIncorrectlyReceived(packetDropped)
attr title "packet drop: incorrectly received, packetBytes"
vector 150 singledumbbell.router2.ppp[0].ppp packetDropInterfaceDown:vector(packetBytes) ETV
attr interpolationmode none
attr recordingmode vector(packetBytes)
attr source packetDropReasonIsInterfaceDown(packetDropped)
attr title "packet drop: interface down, packetBytes"
vector 151 singledumbbell.router2.ppp[0].ppp rcvdPkFromHl:vector(packetBytes) ETV
attr interpolationmode none
attr recordingmode vector(packetBytes)
attr source packetReceivedFromUpper
attr title "packets received from higher layer, packetBytes"
vector 152 singledumbbell.router2.ppp[0].ppp passedUpPk:vector(packetBytes) ETV
attr interpolationmode none
attr recordingmode vector(packetBytes)
attr source packetSentToUpper
attr title "packets passed to higher layer, packetBytes"
vector 153 singledumbbell.router2.ppp[0] packetDropInterfaceDown:vector(packetBytes) ETV
attr interpolationmode none
attr recordingmode vector(packetBytes)
attr source packetDropReasonIsInterfaceDown(packetDropped)
attr title "packet drops: interface down, packetBytes"
vector 154 singledumbbell.router2.ppp[0] packetDropNoCarrier:vector(packetBytes) ETV
attr interpolationmode none
attr recordingmode vector(packetBytes)
attr source packetDropReasonIsNoCarrier(packetDropped)
attr title "packet drops: no carrier, packetBytes"
vector 155 singledumbbell.router2.ppp[1].queue queueLength:vector(removeRepeats) ETV
attr autoWarmupFilter false
attr interpolationmode sample-hold
attr recordingmode vector(removeRepeats)
attr source "warmup(atomic(constant0(packetPushEnded) + count(packetPushStarted) - count(packetPulled) - count(packetRemoved) - count(packetDropped)))"
attr title "queue length, removeRepeats"
attr unit pk
vector 156 singledumbbell.router2.ppp[1].queue queueBitLength:vector ETV
attr autoWarmupFilter false
attr interpolationmode sample-hold
attr recordingmode vector
attr source "warmup(atomic(constant0(packetPushEnded) + sum(packetLength(packetPushStarted)) - sum(packetLength(packetPulled)) - sum(packetLength(packetRemoved)) - sum(packetLength(packetDropped))))"
attr title "queue bit length"
attr unit b
vector 157 singledumbbell.router2.ppp[1].queue queueingTime:vector ETV
attr interpolationmode none
attr recordingmode vector
attr source queueingTime(packetPulled)
attr title "queueing times"
attr unit s
vector 158 singledumbbell.router2.ppp[1].queue incomingPacketLengths:vector ETV
attr interpolationmode none
attr recordingmode vector
attr source packetLength(packetPushStarted)
attr title "incoming packet lengths"
attr unit b
vector 159 singledumbbell.router2.ppp[1].queue incomingDataRate:vector ETV
attr interpolationmode linear
attr recordingmode vector
attr source throughput(packetPushStarted)
attr title "incoming datarate"
attr unit bps
vector 160 singledumbbell.router2.ppp[1].queue outgoingPacketLengths:vector ETV
attr interpolationmode none
attr recordingmode vector
attr source packetLength(packetPulled)
attr title "outgoing packet lengths"
attr unit b
vector 161 singledumbbell.router2.ppp[1].queue outgoingDataRate:vector ETV
attr interpolationmode linear
attr recordingmode vector
attr source throughput(packetPulled)
attr title "outgoing datarate"
attr unit bps
vector 162 singledumbbell.router2.ppp[1].queue droppedPacketLengthsQueueOverflow:vector ETV
attr interpolationmode none
attr recordingmode vector
attr source packetLength(packetDropReasonIsQueueOverflow(packetDropped))
attr title "dropped packet lengths: queue overflow"
attr unit b
vector 163 singledumbbell.router2.ppp[1].queue flowQueueingTime:vector ETV
attr interpolationmode none
attr recordingmode vector
attr source queueingTime(demuxFlow(packetPulled))
attr title "flow queueing times"
attr unit s
vector 164 singledumbbell.router2.ppp[1].queue flowIncomingDataRate:vector ETV
attr interpolationmode linear
attr recordingmode vector
attr source throughput(flowPacketLength(demuxFlow(packetPushStarted)))
attr title "flow specific incoming data rate"
attr unit bps
vector 165 singledumbbell.router2.ppp[1].queue flowOutgoingDataRate:vector ETV
attr interpolationmode linear
attr recordingmode vector
attr source throughput(flowPacketLength(demuxFlow(packetPulled)))
attr title "flow specific outgoing data rate"
attr unit bps
vector 166 singledumbbell.router2.ppp[1].ppp transmissionState:vector ETV
attr interpolationmode sample-hold
attr recordingmode vector
attr source transmissionStateChanged
attr title "tx state"
vector 167 singledumbbell.router2.ppp[1].ppp txPk:vector(packetBytes) ETV
attr interpolationmode none
attr recordingmode vector(packetBytes)
attr source packetSentToLower
attr title "packets transmitted, packetBytes"
vector 168 singledumbbell.router2.ppp[1].ppp rxPkOk:vector(packetBytes) ETV
attr interpolationmode none
attr recordingmode vector(packetBytes)
attr source rxPkOk
attr title "packets received OK, packetBytes"
vector 169 singledumbbell.router2.ppp[1].ppp packetDropIncorrectlyReceived:vector(packetBytes) ETV
attr interpolationmode none
attr recordingmode vector(packetBytes)
attr source packetDropReasonIsIncorrectlyReceived(packetDropped)
attr title "packet drop: incorrectly received, packetBytes"
vector 170 singledumbbell.router2.ppp[1].ppp packetDropInterfaceDown:vector(packetBytes) ETV
attr interpolationmode none
attr recordingmode vector(packetBytes)
attr source packetDropReasonIsInterfaceDown(packetDropped)
attr title "packet drop: interface down, packetBytes"
vector 171 singledumbbell.router2.ppp[1].ppp rcvdPkFromHl:vector(packetBytes) ETV
attr interpolationmode none
attr recordingmode vector(packetBytes)
attr source packetReceivedFromUpper
attr title "packets received from higher layer, packetBytes"
vector 172 singledumbbell.router2.ppp[1].ppp passedUpPk:vector(packetBytes) ETV
attr interpolationmode none
attr recordingmode vector(packetBytes)
attr source packetSentToUpper
attr title "packets passed to higher layer, packetBytes"
vector 173 singledumbbell.router2.ppp[1] packetDropInterfaceDown:vector(packetBytes) ETV
attr interpolationmode none
attr recordingmode vector(packetBytes)
attr source packetDropReasonIsInterfaceDown(packetDropped)
attr title "packet drops: interface down, packetBytes"
vector 174 singledumbbell.router2.ppp[1] packetDropNoCarrier:vector(packetBytes) ETV
attr interpolationmode none
attr recordingmode vector(packetBytes)
attr source packetDropReasonIsNoCarrier(packetDropped)
attr title "packet drops: no carrier, packetBytes"
vector 175 singledumbbell.router2.ipv4.ip packetDropAddressResolutionFailed:vector(packetBytes) ETV
attr interpolationmode none
attr recordingmode vector(packetBytes)
attr source packetDropReasonIsAddressResolutionFailed(packetDropped)
attr title "packet drop: address resolution failed, packetBytes"
vector 176 singledumbbell.router2.ipv4.ip packetDropHopLimitReached:vector(packetBytes) ETV
attr interpolationmode none
attr recordingmode vector(packetBytes)
attr source packetDropReasonIsHopLimitReached(packetDropped)
attr title "packet drop: hop limit reached, packetBytes"
vector 177 singledumbbell.router2.ipv4.ip packetDropForwardingDisabled:vector(packetBytes) ETV
attr interpolationmode none
attr recordingmode vector(packetBytes)
attr source packetDropReasonIsForwardingDisabled(packetDropped)
attr title "packet drop: forwarding disabled, packetBytes"
vector 178 singledumbbell.router2.ipv4.ip packetDropNoInterfaceFound:vector(packetBytes) ETV
attr interpolationmode none
attr recordingmode vector(packetBytes)
attr source packetDropReasonIsNoInterfaceFound(packetDropped)
attr title "packet drop: no interface found, packetBytes"
vector 179 singledumbbell.router2.ipv4.ip packetDropNoRouteFound:vector(packetBytes) ETV
attr interpolationmode none
attr recordingmode vector(packetBytes)
attr source packetDropReasonIsNoRouteFound(packetDropped)
attr title "packet drop: no route found, packetBytes"
vector 180 singledumbbell.router2.ipv4.ip packetDropUndefined:vector(packetBytes) ETV
attr interpolationmode none
attr recordingmode vector(packetBytes)
attr source packetDropReasonIsUndefined(packetDropped)
attr title "packet drop: undefined, packetBytes"
vector 181 singledumbbell.router2.ipv4.arp arpRequestSent:vector(packetBytes) ETV
attr recordingmode vector(packetBytes)
attr source arpRequestSent
attr title "ARP request sent, packetBytes"
vector 182 singledumbbell.router2.ipv4.arp arpReplySent:vector(packetBytes) ETV
attr recordingmode vector(packetBytes)
attr source arpReplySent
attr title "ARP replies sent, packetBytes"
vector 183 singledumbbell.server[0].tcp.conn-1 state:vector(removeRepeats) ETV
attr interpolationmode sample-hold
attr recordingmode vector(removeRepeats)
vector 184 singledumbbell.server[0].tcp.conn-1 sndWnd:vector(removeRepeats) ETV
attr interpolationmode sample-hold
attr recordingmode vector(removeRepeats)
vector 185 singledumbbell.server[0].tcp.conn-1 rcvWnd:vector(removeRepeats) ETV
attr interpolationmode sample-hold
attr recordingmode vector(removeRepeats)
vector 186 singledumbbell.server[0].tcp.conn-1 rcvAdv:vector(removeRepeats) ETV
attr interpolationmode sample-hold
attr recordingmode vector(removeRepeats)
vector 187 singledumbbell.server[0].tcp.conn-1 sndNxt:vector(removeRepeats) ETV
attr interpolationmode sample-hold
attr recordingmode vector(removeRepeats)
vector 188 singledumbbell.server[0].tcp.conn-1 sndAck:vector(removeRepeats) ETV
attr interpolationmode sample-hold
attr recordingmode vector(removeRepeats)
vector 189 singledumbbell.server[0].tcp.conn-1 rcvSeq:vector(removeRepeats) ETV
attr interpolationmode sample-hold
attr recordingmode vector(removeRepeats)
vector 190 singledumbbell.server[0].tcp.conn-1 rcvAck:vector(removeRepeats) ETV
attr interpolationmode sample-hold
attr recordingmode vector(removeRepeats)
vector 191 singledumbbell.server[0].tcp.conn-1 unacked:vector(removeRepeats) ETV
attr interpolationmode sample-hold
attr recordingmode vector(removeRepeats)
vector 192 singledumbbell.server[0].tcp.conn-1 dupAcks:vector(removeRepeats) ETV
attr interpolationmode sample-hold
attr recordingmode vector(removeRepeats)
vector 193 singledumbbell.server[0].tcp.conn-1 pipe:vector(removeRepeats) ETV
attr interpolationmode sample-hold
attr recordingmode vector(removeRepeats)
vector 194 singledumbbell.server[0].tcp.conn-1 sndSacks:vector(removeRepeats) ETV
attr interpolationmode sample-hold
attr recordingmode vector(removeRepeats)
vector 195 singledumbbell.server[0].tcp.conn-1 rcvSacks:vector(removeRepeats) ETV
attr interpolationmode sample-hold
attr recordingmode vector(removeRepeats)
vector 196 singledumbbell.server[0].tcp.conn-1 rcvOooSeg:vector(removeRepeats) ETV
attr interpolationmode sample-hold
attr recordingmode vector(removeRepeats)
vector 197 singledumbbell.server[0].tcp.conn-1 rcvNASeg:vector(removeRepeats) ETV
attr interpolationmode sample-hold
attr recordingmode vector(removeRepeats)
vector 198 singledumbbell.server[0].tcp.conn-1 sackedBytes:vector(removeRepeats) ETV
attr interpolationmode sample-hold
attr recordingmode vector(removeRepeats)
vector 199 singledumbbell.server[0].tcp.conn-1 tcpRcvQueueBytes:vector(removeRepeats) ETV
attr interpolationmode sample-hold
attr recordingmode vector(removeRepeats)
vector 200 singledumbbell.server[0].tcp.conn-1 tcpRcvQueueDrops:vector(removeRepeats) ETV
attr interpolationmode sample-hold
attr recordingmode vector(removeRepeats)
vector 201 singledumbbell.server[0].tcp.conn-1 tcpRcvPayloadBytes:vector(removeRepeats) ETV
attr interpolationmode sample-hold
attr recordingmode vector(removeRepeats)
vector 202 singledumbbell.server[0].tcp.conn-1 cwnd:vector(removeRepeats) ETV
attr interpolationmode sample-hold
attr recordingmode vector(removeRepeats)
vector 203 singledumbbell.server[0].tcp.conn-1 ssthresh:vector(removeRepeats) ETV
attr interpolationmode sample-hold
attr recordingmode vector(removeRepeats)
vector 204 singledumbbell.server[0].tcp.conn-1 rtt:vector(removeRepeats) ETV
attr interpolationmode sample-hold
attr recordingmode vector(removeRepeats)
vector 205 singledumbbell.server[0].tcp.conn-1 srtt:vector(removeRepeats) ETV
attr interpolationmode sample-hold
attr recordingmode vector(removeRepeats)
vector 206 singledumbbell.server[0].tcp.conn-1 rttvar:vector(removeRepeats) ETV
attr interpolationmode sample-hold
attr recordingmode vector(removeRepeats)
vector 207 singledumbbell.server[0].tcp.conn-1 rto:vector(removeRepeats) ETV
attr interpolationmode sample-hold
attr recordingmode vector(removeRepeats)
vector 208 singledumbbell.server[0].tcp.conn-1 numRtos:vector(removeRepeats) ETV
attr interpolationmode sample-hold
attr recordingmode vector(removeRepeats)
vector 209 singledumbbell.server[0].tcp.conn-1 load:vector(removeRepeats) ETV
attr interpolationmode sample-hold
attr recordingmode vector(removeRepeats)
vector 210 singledumbbell.server[0].tcp.conn-1 calcLoad:vector(removeRepeats) ETV
attr interpolationmode sample-hold
attr recordingmode vector(removeRepeats)
vector 211 singledumbbell.server[0].tcp.conn-1 markingProb:vector(removeRepeats) ETV
attr interpolationmode sample-hold
attr recordingmode vector(removeRepeats)
vector 212 singledumbbell.server[0].tcp.conn-1 throughput:vector(removeRepeats) ETV
attr interpolationmode sample-hold
attr recordingmode vector(removeRepeats)
vector 213 singledumbbell.server[0].tcp.conn-1 additiveIncrease:vector(removeRepeats) ETV
attr interpolationmode sample-hold
attr recordingmode vector(removeRepeats)
vector 214 singledumbbell.server[0].tcp.conn-1 pacingGain:vector(removeRepeats) ETV
attr interpolationmode sample-hold
attr recordingmode vector(removeRepeats)
vector 215 singledumbbell.server[0].tcp.conn-1 paceRate:vector(removeRepeats) ETV
attr interpolationmode sample-hold
attr recordingmode vector(removeRepeats)
vector 216 singledumbbell.server[0].tcp.conn-1 recover:vector(removeRepeats) ETV
attr interpolationmode sample-hold
attr recordingmode vector(removeRepeats)
vector 217 singledumbbell.server[0].tcp.conn-1 lossRecovery:vector(removeRepeats) ETV
attr interpolationmode sample-hold
attr recordingmode vector(removeRepeats)
vector 218 singledumbbell.server[0].tcp.conn-1 highRxt:vector(removeRepeats) ETV
attr interpolationmode sample-hold
attr recordingmode vector(removeRepeats)
vector 219 singledumbbell.server[0].tcp.conn-1 mDelivered:vector(removeRepeats) ETV
attr interpolationmode sample-hold
attr recordingmode vector(removeRepeats)
vector 220 singledumbbell.server[0].tcp.conn-1 mFirstSentTime:vector(removeRepeats) ETV
attr interpolationmode sample-hold
attr recordingmode vector(removeRepeats)
vector 221 singledumbbell.server[0].tcp.conn-1 mLastSentTime:vector(removeRepeats) ETV
attr interpolationmode sample-hold
attr recordingmode vector(removeRepeats)
vector 222 singledumbbell.server[0].tcp.conn-1 mbytesInFlight:vector(removeRepeats) ETV
attr interpolationmode sample-hold
attr recordingmode vector(removeRepeats)
vector 223 singledumbbell.server[0].tcp.conn-1 mbytesInFlightTotal:vector(removeRepeats) ETV
attr interpolationmode sample-hold
attr recordingmode vector(removeRepeats)
vector 224 singledumbbell.server[0].tcp.conn-1 mbytesLoss:vector(removeRepeats) ETV
attr interpolationmode sample-hold
attr recordingmode vector(removeRepeats)
vector 225 singledumbbell.server[0].tcp.conn-1 msendElapsed:vector(removeRepeats) ETV
attr interpolationmode sample-hold
attr recordingmode vector(removeRepeats)
vector 226 singledumbbell.server[0].tcp.conn-1 mackElapsed:vector(removeRepeats) ETV
attr interpolationmode sample-hold
attr recordingmode vector(removeRepeats)
vector 227 singledumbbell.server[0].tcp.conn-1 bicTarget:vector(removeRepeats) ETV
attr interpolationmode sample-hold
attr recordingmode vector(removeRepeats)
vector 228 singledumbbell.server[0].tcp.conn-1 originalPoint:vector(removeRepeats) ETV
attr interpolationmode sample-hold
attr recordingmode vector(removeRepeats)
vector 229 singledumbbell.server[0].tcp.conn-1 cwndSeg:vector(removeRepeats) ETV
attr interpolationmode sample-hold
attr recordingmode vector(removeRepeats)
vector 230 singledumbbell.server[0].tcp.conn-1 bicK:vector(removeRepeats) ETV
attr interpolationmode sample-hold
attr recordingmode vector(removeRepeats)
vector 231 singledumbbell.server[0].tcp.conn-1 cnt:vector(removeRepeats) ETV
attr interpolationmode sample-hold
attr recordingmode vector(removeRepeats)
vector 232 singledumbbell.server[0].tcp.conn-1 lastMaxWindow:vector(removeRepeats) ETV
attr interpolationmode sample-hold
attr recordingmode vector(removeRepeats)
vector 233 singledumbbell.server[0].tcp.conn-1 delayMin:vector(removeRepeats) ETV
attr interpolationmode sample-hold
attr recordingmode vector(removeRepeats)
vector 234 singledumbbell.server[0].tcp.conn-1 concave:vector(removeRepeats) ETV
attr interpolationmode sample-hold
attr recordingmode vector(removeRepeats)
vector 235 singledumbbell.server[0].tcp.conn-1 convex:vector(removeRepeats) ETV
attr interpolationmode sample-hold
attr recordingmode vector(removeRepeats)
vector 236 singledumbbell.server[0].tcp.conn-1 friendly:vector(removeRepeats) ETV
attr interpolationmode sample-hold
attr recordingmode vector(removeRepeats)
vector 237 singledumbbell.server[0].tcp.conn-1 sndUna:vector(removeRepeats) ETV
attr interpolationmode sample-hold
attr recordingmode vector(removeRepeats)
vector 238 singledumbbell.server[0].tcp.conn-1 recoveryPoint:vector(removeRepeats) ETV
attr interpolationmode sample-hold
attr recordingmode vector(removeRepeats)
vector 239 singledumbbell.client[0].tcp.conn-8 state:vector(removeRepeats) ETV
attr interpolationmode sample-hold
attr recordingmode vector(removeRepeats)
vector 240 singledumbbell.client[0].tcp.conn-8 sndWnd:vector(removeRepeats) ETV
attr interpolationmode sample-hold
attr recordingmode vector(removeRepeats)
vector 241 singledumbbell.client[0].tcp.conn-8 rcvWnd:vector(removeRepeats) ETV
attr interpolationmode sample-hold
attr recordingmode vector(removeRepeats)
vector 242 singledumbbell.client[0].tcp.conn-8 rcvAdv:vector(removeRepeats) ETV
attr interpolationmode sample-hold
attr recordingmode vector(removeRepeats)
vector 243 singledumbbell.client[0].tcp.conn-8 sndNxt:vector(removeRepeats) ETV
attr interpolationmode sample-hold
attr recordingmode vector(removeRepeats)
vector 244 singledumbbell.client[0].tcp.conn-8 sndAck:vector(removeRepeats) ETV
attr interpolationmode sample-hold
attr recordingmode vector(removeRepeats)
vector 245 singledumbbell.client[0].tcp.conn-8 rcvSeq:vector(removeRepeats) ETV
attr interpolationmode sample-hold
attr recordingmode vector(removeRepeats)
vector 246 singledumbbell.client[0].tcp.conn-8 rcvAck:vector(removeRepeats) ETV
attr interpolationmode sample-hold
attr recordingmode vector(removeRepeats)
vector 247 singledumbbell.client[0].tcp.conn-8 unacked:vector(removeRepeats) ETV
attr interpolationmode sample-hold
attr recordingmode vector(removeRepeats)
vector 248 singledumbbell.client[0].tcp.conn-8 dupAcks:vector(removeRepeats) ETV
attr interpolationmode sample-hold
attr recordingmode vector(removeRepeats)
vector 249 singledumbbell.client[0].tcp.conn-8 pipe:vector(removeRepeats) ETV
attr interpolationmode sample-hold
attr recordingmode vector(removeRepeats)
vector 250 singledumbbell.client[0].tcp.conn-8 sndSacks:vector(removeRepeats) ETV
attr interpolationmode sample-hold
attr recordingmode vector(removeRepeats)
vector 251 singledumbbell.client[0].tcp.conn-8 rcvSacks:vector(removeRepeats) ETV
attr interpolationmode sample-hold
attr recordingmode vector(removeRepeats)
vector 252 singledumbbell.client[0].tcp.conn-8 rcvOooSeg:vector(removeRepeats) ETV
attr interpolationmode sample-hold
attr recordingmode vector(removeRepeats)
vector 253 singledumbbell.client[0].tcp.conn-8 rcvNASeg:vector(removeRepeats) ETV
attr interpolationmode sample-hold
attr recordingmode vector(removeRepeats)
vector 254 singledumbbell.client[0].tcp.conn-8 sackedBytes:vector(removeRepeats) ETV
attr interpolationmode sample-hold
attr recordingmode vector(removeRepeats)
vector 255 singledumbbell.client[0].tcp.conn-8 tcpRcvQueueBytes:vector(removeRepeats) ETV
attr interpolationmode sample-hold
attr recordingmode vector(removeRepeats)
vector 256 singledumbbell.client[0].tcp.conn-8 tcpRcvQueueDrops:vector(removeRepeats) ETV
attr interpolationmode sample-hold
attr recordingmode vector(removeRepeats)
vector 257 singledumbbell.client[0].tcp.conn-8 tcpRcvPayloadBytes:vector(removeRepeats) ETV
attr interpolationmode sample-hold
attr recordingmode vector(removeRepeats)
vector 258 singledumbbell.client[0].tcp.conn-8 cwnd:vector(removeRepeats) ETV
attr interpolationmode sample-hold
attr recordingmode vector(removeRepeats)
vector 259 singledumbbell.client[0].tcp.conn-8 ssthresh:vector(removeRepeats) ETV
attr interpolationmode sample-hold
attr recordingmode vector(removeRepeats)
vector 260 singledumbbell.client[0].tcp.conn-8 rtt:vector(removeRepeats) ETV
attr interpolationmode sample-hold
attr recordingmode vector(removeRepeats)
vector 261 singledumbbell.client[0].tcp.conn-8 srtt:vector(removeRepeats) ETV
attr interpolationmode sample-hold
attr recordingmode vector(removeRepeats)
vector 262 singledumbbell.client[0].tcp.conn-8 rttvar:vector(removeRepeats) ETV
attr interpolationmode sample-hold
attr recordingmode vector(removeRepeats)
vector 263 singledumbbell.client[0].tcp.conn-8 rto:vector(removeRepeats) ETV
attr interpolationmode sample-hold
attr recordingmode vector(removeRepeats)
vector 264 singledumbbell.client[0].tcp.conn-8 numRtos:vector(removeRepeats) ETV
attr interpolationmode sample-hold
attr recordingmode vector(removeRepeats)
vector 265 singledumbbell.client[0].tcp.conn-8 load:vector(removeRepeats) ETV
attr interpolationmode sample-hold
attr recordingmode vector(removeRepeats)
vector 266 singledumbbell.client[0].tcp.conn-8 calcLoad:vector(removeRepeats) ETV
attr interpolationmode sample-hold
attr recordingmode vector(removeRepeats)
vector 267 singledumbbell.client[0].tcp.conn-8 markingProb:vector(removeRepeats) ETV
attr interpolationmode sample-hold
attr recordingmode vector(removeRepeats)
vector 268 singledumbbell.client[0].tcp.conn-8 throughput:vector(removeRepeats) ETV
attr interpolationmode sample-hold
attr recordingmode vector(removeRepeats)
vector 269 singledumbbell.client[0].tcp.conn-8 additiveIncrease:vector(removeRepeats) ETV
attr interpolationmode sample-hold
attr recordingmode vector(removeRepeats)
vector 270 singledumbbell.client[0].tcp.conn-8 pacingGain:vector(removeRepeats) ETV
attr interpolationmode sample-hold
attr recordingmode vector(removeRepeats)
vector 271 singledumbbell.client[0].tcp.conn-8 paceRate:vector(removeRepeats) ETV
attr interpolationmode sample-hold
attr recordingmode vector(removeRepeats)
vector 272 singledumbbell.client[0].tcp.conn-8 recover:vector(removeRepeats) ETV
attr interpolationmode sample-hold
attr recordingmode vector(removeRepeats)
vector 273 singledumbbell.client[0].tcp.conn-8 lossRecovery:vector(removeRepeats) ETV
attr interpolationmode sample-hold
attr recordingmode vector(removeRepeats)
vector 274 singledumbbell.client[0].tcp.conn-8 highRxt:vector(removeRepeats) ETV
attr interpolationmode sample-hold
attr recordingmode vector(removeRepeats)
vector 275 singledumbbell.client[0].tcp.conn-8 mDelivered:vector(removeRepeats) ETV
attr interpolationmode sample-hold
attr recordingmode vector(removeRepeats)
vector 276 singledumbbell.client[0].tcp.conn-8 mFirstSentTime:vector(removeRepeats) ETV
attr interpolationmode sample-hold
attr recordingmode vector(removeRepeats)
vector 277 singledumbbell.client[0].tcp.conn-8 mLastSentTime:vector(removeRepeats) ETV
attr interpolationmode sample-hold
attr recordingmode vector(removeRepeats)
vector 278 singledumbbell.client[0].tcp.conn-8 mbytesInFlight:vector(removeRepeats) ETV
attr interpolationmode sample-hold
attr recordingmode vector(removeRepeats)
vector 279 singledumbbell.client[0].tcp.conn-8 mbytesInFlightTotal:vector(removeRepeats) ETV
attr interpolationmode sample-hold
attr recordingmode vector(removeRepeats)
vector 280 singledumbbell.client[0].tcp.conn-8 mbytesLoss:vector(removeRepeats) ETV
attr interpolationmode sample-hold
attr recordingmode vector(removeRepeats)
vector 281 singledumbbell.client[0].tcp.conn-8 msendElapsed:vector(removeRepeats) ETV
attr interpolationmode sample-hold
attr recordingmode vector(removeRepeats)
vector 282 singledumbbell.client[0].tcp.conn-8 mackElapsed:vector(removeRepeats) ETV
attr interpolationmode sample-hold
attr recordingmode vector(removeRepeats)
vector 283 singledumbbell.client[0].tcp.conn-8 bicTarget:vector(removeRepeats) ETV
attr interpolationmode sample-hold
attr recordingmode vector(removeRepeats)
vector 284 singledumbbell.client[0].tcp.conn-8 originalPoint:vector(removeRepeats) ETV
attr interpolationmode sample-hold
attr recordingmode vector(removeRepeats)
vector 285 singledumbbell.client[0].tcp.conn-8 cwndSeg:vector(removeRepeats) ETV
attr interpolationmode sample-hold
attr recordingmode vector(removeRepeats)
vector 286 singledumbbell.client[0].tcp.conn-8 bicK:vector(removeRepeats) ETV
attr interpolationmode sample-hold
attr recordingmode vector(removeRepeats)
vector 287 singledumbbell.client[0].tcp.conn-8 cnt:vector(removeRepeats) ETV
attr interpolationmode sample-hold
attr recordingmode vector(removeRepeats)
vector 288 singledumbbell.client[0].tcp.conn-8 lastMaxWindow:vector(removeRepeats) ETV
attr interpolationmode sample-hold
attr recordingmode vector(removeRepeats)
vector 289 singledumbbell.client[0].tcp.conn-8 delayMin:vector(removeRepeats) ETV
attr interpolationmode sample-hold
attr recordingmode vector(removeRepeats)
vector 290 singledumbbell.client[0].tcp.conn-8 concave:vector(removeRepeats) ETV
attr interpolationmode sample-hold
attr recordingmode vector(removeRepeats)
vector 291 singledumbbell.client[0].tcp.conn-8 convex:vector(removeRepeats) ETV
attr interpolationmode sample-hold
attr recordingmode vector(removeRepeats)
vector 292 singledumbbell.client[0].tcp.conn-8 friendly:vector(removeRepeats) ETV
attr interpolationmode sample-hold
attr recordingmode vector(removeRepeats)
vector 293 singledumbbell.client[0].tcp.conn-8 sndUna:vector(removeRepeats) ETV
attr interpolationmode sample-hold
attr recordingmode vector(removeRepeats)
vector 294 singledumbbell.client[0].tcp.conn-8 recoveryPoint:vector(removeRepeats) ETV
attr interpolationmode sample-hold
attr recordingmode vector(removeRepeats)
vector 295 singledumbbell.client[0].tcp.conn-9 state:vector(removeRepeats) ETV
attr interpolationmode sample-hold
attr recordingmode vector(removeRepeats)
vector 296 singledumbbell.client[0].tcp.conn-9 sndWnd:vector(removeRepeats) ETV
attr interpolationmode sample-hold
attr recordingmode vector(removeRepeats)
vector 297 singledumbbell.client[0].tcp.conn-9 rcvWnd:vector(removeRepeats) ETV
attr interpolationmode sample-hold
attr recordingmode vector(removeRepeats)
vector 298 singledumbbell.client[0].tcp.conn-9 rcvAdv:vector(removeRepeats) ETV
attr interpolationmode sample-hold
attr recordingmode vector(removeRepeats)
vector 299 singledumbbell.client[0].tcp.conn-9 sndNxt:vector(removeRepeats) ETV
attr interpolationmode sample-hold
attr recordingmode vector(removeRepeats)
vector 300 singledumbbell.client[0].tcp.conn-9 sndAck:vector(removeRepeats) ETV
attr interpolationmode sample-hold
attr recordingmode vector(removeRepeats)
vector 301 singledumbbell.client[0].tcp.conn-9 rcvSeq:vector(removeRepeats) ETV
attr interpolationmode sample-hold
attr recordingmode vector(removeRepeats)
vector 302 singledumbbell.client[0].tcp.conn-9 rcvAck:vector(removeRepeats) ETV
attr interpolationmode sample-hold
attr recordingmode vector(removeRepeats)
vector 303 singledumbbell.client[0].tcp.conn-9 unacked:vector(removeRepeats) ETV
attr interpolationmode sample-hold
attr recordingmode vector(removeRepeats)
vector 304 singledumbbell.client[0].tcp.conn-9 dupAcks:vector(removeRepeats) ETV
attr interpolationmode sample-hold
attr recordingmode vector(removeRepeats)
vector 305 singledumbbell.client[0].tcp.conn-9 pipe:vector(removeRepeats) ETV
attr interpolationmode sample-hold
attr recordingmode vector(removeRepeats)
vector 306 singledumbbell.client[0].tcp.conn-9 sndSacks:vector(removeRepeats) ETV
attr interpolationmode sample-hold
attr recordingmode vector(removeRepeats)
vector 307 singledumbbell.client[0].tcp.conn-9 rcvSacks:vector(removeRepeats) ETV
attr interpolationmode sample-hold
attr recordingmode vector(removeRepeats)
vector 308 singledumbbell.client[0].tcp.conn-9 rcvOooSeg:vector(removeRepeats) ETV
attr interpolationmode sample-hold
attr recordingmode vector(removeRepeats)
vector 309 singledumbbell.client[0].tcp.conn-9 rcvNASeg:vector(removeRepeats) ETV
attr interpolationmode sample-hold
attr recordingmode vector(removeRepeats)
vector 310 singledumbbell.client[0].tcp.conn-9 sackedBytes:vector(removeRepeats) ETV
attr interpolationmode sample-hold
attr recordingmode vector(removeRepeats)
vector 311 singledumbbell.client[0].tcp.conn-9 tcpRcvQueueBytes:vector(removeRepeats) ETV
attr interpolationmode sample-hold
attr recordingmode vector(removeRepeats)
vector 312 singledumbbell.client[0].tcp.conn-9 tcpRcvQueueDrops:vector(removeRepeats) ETV
attr interpolationmode sample-hold
attr recordingmode vector(removeRepeats)
vector 313 singledumbbell.client[0].tcp.conn-9 tcpRcvPayloadBytes:vector(removeRepeats) ETV
attr interpolationmode sample-hold
attr recordingmode vector(removeRepeats)
vector 314 singledumbbell.client[0].tcp.conn-9 cwnd:vector(removeRepeats) ETV
attr interpolationmode sample-hold
attr recordingmode vector(removeRepeats)
vector 315 singledumbbell.client[0].tcp.conn-9 ssthresh:vector(removeRepeats) ETV
attr interpolationmode sample-hold
attr recordingmode vector(removeRepeats)
vector 316 singledumbbell.client[0].tcp.conn-9 rtt:vector(removeRepeats) ETV
attr interpolationmode sample-hold
attr recordingmode vector(removeRepeats)
vector 317 singledumbbell.client[0].tcp.conn-9 srtt:vector(removeRepeats) ETV
attr interpolationmode sample-hold
attr recordingmode vector(removeRepeats)
vector 318 singledumbbell.client[0].tcp.conn-9 rttvar:vector(removeRepeats) ETV
attr interpolationmode sample-hold
attr recordingmode vector(removeRepeats)
vector 319 singledumbbell.client[0].tcp.conn-9 rto:vector(removeRepeats) ETV
attr interpolationmode sample-hold
attr recordingmode vector(removeRepeats)
vector 320 singledumbbell.client[0].tcp.conn-9 numRtos:vector(removeRepeats) ETV
attr interpolationmode sample-hold
attr recordingmode vector(removeRepeats)
vector 321 singledumbbell.client[0].tcp.conn-9 load:vector(removeRepeats) ETV
attr interpolationmode sample-hold
attr recordingmode vector(removeRepeats)
vector 322 singledumbbell.client[0].tcp.conn-9 calcLoad:vector(removeRepeats) ETV
attr interpolationmode sample-hold
attr recordingmode vector(removeRepeats)
vector 323 singledumbbell.client[0].tcp.conn-9 markingProb:vector(removeRepeats) ETV
attr interpolationmode sample-hold
attr recordingmode vector(removeRepeats)
vector 324 singledumbbell.client[0].tcp.conn-9 throughput:vector(removeRepeats) ETV
attr interpolationmode sample-hold
attr recordingmode vector(removeRepeats)
vector 325 singledumbbell.client[0].tcp.conn-9 additiveIncrease:vector(removeRepeats) ETV
attr interpolationmode sample-hold
attr recordingmode vector(removeRepeats)
vector 326 singledumbbell.client[0].tcp.conn-9 pacingGain:vector(removeRepeats) ETV
attr interpolationmode sample-hold
attr recordingmode vector(removeRepeats)
vector 327 singledumbbell.client[0].tcp.conn-9 paceRate:vector(removeRepeats) ETV
attr interpolationmode sample-hold
attr recordingmode vector(removeRepeats)
vector 328 singledumbbell.client[0].tcp.conn-9 recover:vector(removeRepeats) ETV
attr interpolationmode sample-hold
attr recordingmode vector(removeRepeats)
vector 329 singledumbbell.client[0].tcp.conn-9 lossRecovery:vector(removeRepeats) ETV
attr interpolationmode sample-hold
attr recordingmode vector(removeRepeats)
vector 330 singledumbbell.client[0].tcp.conn-9 highRxt:vector(removeRepeats) ETV
attr interpolationmode sample-hold
attr recordingmode vector(removeRepeats)
vector 331 singledumbbell.client[0].tcp.conn-9 mDelivered:vector(removeRepeats) ETV
attr interpolationmode sample-hold
attr recordingmode vector(removeRepeats)
vector 332 singledumbbell.client[0].tcp.conn-9 mFirstSentTime:vector(removeRepeats) ETV
attr interpolationmode sample-hold
attr recordingmode vector(removeRepeats)
vector 333 singledumbbell.client[0].tcp.conn-9 mLastSentTime:vector(removeRepeats) ETV
attr interpolationmode sample-hold
attr recordingmode vector(removeRepeats)
vector 334 singledumbbell.client[0].tcp.conn-9 mbytesInFlight:vector(removeRepeats) ETV
attr interpolationmode sample-hold
attr recordingmode vector(removeRepeats)
vector 335 singledumbbell.client[0].tcp.conn-9 mbytesInFlightTotal:vector(removeRepeats) ETV
attr interpolationmode sample-hold
attr recordingmode vector(removeRepeats)
vector 336 singledumbbell.client[0].tcp.conn-9 mbytesLoss:vector(removeRepeats) ETV
attr interpolationmode sample-hold
attr recordingmode vector(removeRepeats)
vector 337 singledumbbell.client[0].tcp.conn-9 msendElapsed:vector(removeRepeats) ETV
attr interpolationmode sample-hold
attr recordingmode vector(removeRepeats)
vector 338 singledumbbell.client[0].tcp.conn-9 mackElapsed:vector(removeRepeats) ETV
attr interpolationmode sample-hold
attr recordingmode vector(removeRepeats)
vector 339 singledumbbell.client[0].tcp.conn-9 bicTarget:vector(removeRepeats) ETV
attr interpolationmode sample-hold
attr recordingmode vector(removeRepeats)
vector 340 singledumbbell.client[0].tcp.conn-9 originalPoint:vector(removeRepeats) ETV
attr interpolationmode sample-hold
attr recordingmode vector(removeRepeats)
vector 341 singledumbbell.client[0].tcp.conn-9 cwndSeg:vector(removeRepeats) ETV
attr interpolationmode sample-hold
attr recordingmode vector(removeRepeats)
vector 342 singledumbbell.client[0].tcp.conn-9 bicK:vector(removeRepeats) ETV
attr interpolationmode sample-hold
attr recordingmode vector(removeRepeats)
vector 343 singledumbbell.client[0].tcp.conn-9 cnt:vector(removeRepeats) ETV
attr interpolationmode sample-hold
attr recordingmode vector(removeRepeats)
vector 344 singledumbbell.client[0].tcp.conn-9 lastMaxWindow:vector(removeRepeats) ETV
attr interpolationmode sample-hold
attr recordingmode vector(removeRepeats)
vector 345 singledumbbell.client[0].tcp.conn-9 delayMin:vector(removeRepeats) ETV
attr interpolationmode sample-hold
attr recordingmode vector(removeRepeats)
vector 346 singledumbbell.client[0].tcp.conn-9 concave:vector(removeRepeats) ETV
attr interpolationmode sample-hold
attr recordingmode vector(removeRepeats)
vector 347 singledumbbell.client[0].tcp.conn-9 convex:vector(removeRepeats) ETV
attr interpolationmode sample-hold
attr recordingmode vector(removeRepeats)
vector 348 singledumbbell.client[0].tcp.conn-9 friendly:vector(removeRepeats) ETV
attr interpolationmode sample-hold
attr recordingmode vector(removeRepeats)
vector 349 singledumbbell.client[0].tcp.conn-9 sndUna:vector(removeRepeats) ETV
attr interpolationmode sample-hold
attr recordingmode vector(removeRepeats)
vector 350 singledumbbell.client[0].tcp.conn-9 recoveryPoint:vector(removeRepeats) ETV
attr interpolationmode sample-hold
attr recordingmode vector(removeRepeats)
vector 351 singledumbbell.server[0].tcp.conn-10 state:vector(removeRepeats) ETV
attr interpolationmode sample-hold
attr recordingmode vector(removeRepeats)
vector 352 singledumbbell.server[0].tcp.conn-10 sndWnd:vector(removeRepeats) ETV
attr interpolationmode sample-hold
attr recordingmode vector(removeRepeats)
vector 353 singledumbbell.server[0].tcp.conn-10 rcvWnd:vector(removeRepeats) ETV
attr interpolationmode sample-hold
attr recordingmode vector(removeRepeats)
vector 354 singledumbbell.server[0].tcp.conn-10 rcvAdv:vector(removeRepeats) ETV
attr interpolationmode sample-hold
attr recordingmode vector(removeRepeats)
vector 355 singledumbbell.server[0].tcp.conn-10 sndNxt:vector(removeRepeats) ETV
attr interpolationmode sample-hold
attr recordingmode vector(removeRepeats)
vector 356 singledumbbell.server[0].tcp.conn-10 sndAck:vector(removeRepeats) ETV
attr interpolationmode sample-hold
attr recordingmode vector(removeRepeats)
vector 357 singledumbbell.server[0].tcp.conn-10 rcvSeq:vector(removeRepeats) ETV
attr interpolationmode sample-hold
attr recordingmode vector(removeRepeats)
vector 358 singledumbbell.server[0].tcp.conn-10 rcvAck:vector(removeRepeats) ETV
attr interpolationmode sample-hold
attr recordingmode vector(removeRepeats)
vector 359 singledumbbell.server[0].tcp.conn-10 unacked:vector(removeRepeats) ETV
attr interpolationmode sample-hold
attr recordingmode vector(removeRepeats)
vector 360 singledumbbell.server[0].tcp.conn-10 dupAcks:vector(removeRepeats) ETV
attr interpolationmode sample-hold
attr recordingmode vector(removeRepeats)
vector 361 singledumbbell.server[0].tcp.conn-10 pipe:vector(removeRepeats) ETV
attr interpolationmode sample-hold
attr recordingmode vector(removeRepeats)
vector 362 singledumbbell.server[0].tcp.conn-10 sndSacks:vector(removeRepeats) ETV
attr interpolationmode sample-hold
attr recordingmode vector(removeRepeats)
vector 363 singledumbbell.server[0].tcp.conn-10 rcvSacks:vector(removeRepeats) ETV
attr interpolationmode sample-hold
attr recordingmode vector(removeRepeats)
vector 364 singledumbbell.server[0].tcp.conn-10 rcvOooSeg:vector(removeRepeats) ETV
attr interpolationmode sample-hold
attr recordingmode vector(removeRepeats)
vector 365 singledumbbell.server[0].tcp.conn-10 rcvNASeg:vector(removeRepeats) ETV
attr interpolationmode sample-hold
attr recordingmode vector(removeRepeats)
vector 366 singledumbbell.server[0].tcp.conn-10 sackedBytes:vector(removeRepeats) ETV
attr interpolationmode sample-hold
attr recordingmode vector(removeRepeats)
vector 367 singledumbbell.server[0].tcp.conn-10 tcpRcvQueueBytes:vector(removeRepeats) ETV
attr interpolationmode sample-hold
attr recordingmode vector(removeRepeats)
vector 368 singledumbbell.server[0].tcp.conn-10 tcpRcvQueueDrops:vector(removeRepeats) ETV
attr interpolationmode sample-hold
attr recordingmode vector(removeRepeats)
vector 369 singledumbbell.server[0].tcp.conn-10 tcpRcvPayloadBytes:vector(removeRepeats) ETV
attr interpolationmode sample-hold
attr recordingmode vector(removeRepeats)
vector 370 singledumbbell.server[0].tcp.conn-10 cwnd:vector(removeRepeats) ETV
attr interpolationmode sample-hold
attr recordingmode vector(removeRepeats)
vector 371 singledumbbell.server[0].tcp.conn-10 ssthresh:vector(removeRepeats) ETV
attr interpolationmode sample-hold
attr recordingmode vector(removeRepeats)
vector 372 singledumbbell.server[0].tcp.conn-10 rtt:vector(removeRepeats) ETV
attr interpolationmode sample-hold
attr recordingmode vector(removeRepeats)
vector 373 singledumbbell.server[0].tcp.conn-10 srtt:vector(removeRepeats) ETV
[...]
261	28848243 256583 190134 379890 1.615786002112 3.128331762112 6274 0.036054816985 0.037967878418 233.15521433592 8.6659814819288
262	29104826 256452 190134 379890 1.615786002112 3.128331762112 6274 7.0167512e-05 0.000529212128 2.507833928068 0.0011124964693212
271	29361278 262872 190134 379890 1.615786002112 3.128331762112 6274 57.402197450666 58.325085214339 362136.45227883 20902787.943778
275	29624150 218890 190104 379890 1.615544882112 3.128331762112 6275 8937056 18021808 84583435800 1.1833081630969e+18
276	29843040 256658 190134 379890 1.615786002112 3.128331762112 6260 1.543450002112 3.052620082112 14385.702066985 34247.377829785
277	30099698 256945 190134 379890 1.615786002112 3.128331762112 6267 1.579618002112 3.090475922112 14633.74201492 35362.996634488
278	30356643 414313 190134 379890 1.615786002112 3.128331762112 12555 215752 227336 2796122752 6.228258686857e+14
281	30770956 3060 196280 370697 1.664733362112 3.055031282112 77 0.036168 0.03785584 2.85076176 0.10556176537317
282	30774016 258 196280 365827 1.664733362112 3.016210962112 7 0.03640912 0.03785584 0.25992736 0.009653375384576
285	30774274 210 191677 361041 1.628083122112 2.978114002112 7 151 157 1078 166040
287	30774484 434 191677 361165 1.628083122112 2.979078482112 14 150 15700 108871 1660563891
354	30774918 225900 190118 379904 1.615662387712 3.128449267712 6275 208999990 218084742 1339978346650 2.8618531802431e+20
356	31000818 218934 190118 379904 1.615662387712 3.128449267712 6275 8999990 18084742 84978346650 1.1939793643137e+18
357	31219752 218933 190118 379904 1.615662387712 3.128449267712 6275 8998542 18083294 84969260450 1.1937332801786e+18
380	31438685 35 240663 240663 2.018480019712 2.018480019712 1 49100480 49100480 49100480 2.4108571362304e+15
436	31438720 256622 190134 379890 1.615786002112 3.128331762112 6274 0.00019861094 0.000201804121 1.259156083258 0.00025270791466095
437	31695342 194525 190119 379905 1.615662387712 3.128449267712 6275 1448 1448 9086200 13156817600
438	31889867 244725 190119 379905 1.615662387712 3.128449267712 6275 1.5871715408 3.0999584208 14705.87025452 35661.25143929
439	32134592 44 238341 363792 2 3 2 48038848 48050432 96089280 4.6165749325537e+15
5	32134636 163436 379922 569990 3.128572882112 4.644012082112 6286 0 0 0 0
6	32298072 163436 379922 569990 3.128572882112 4.644012082112 6286 0 0 0 0
7	32461508 188580 379922 569990 3.128572882112 4.644012082112 6286 12000 12000 75432000 905184000000
8	32650088 2520 380466 567963 3.132913042112 4.627857042112 63 49767750.497678 49767750.497678 3135368281.3537 1.5604022634474e+17
9	32652608 188580 379922 569990 3.128572882112 4.644012082112 6286 12000 12000 75432000 905184000000
10	32841188 2583 380466 567963 3.132913042112 4.627857042112 63 49767750.497678 49767750.497678 3135368281.3537 1.5604022634474e+17
15	32843771 339444 379922 569991 3.128572882112 4.644013287712 12572 0 1 6286 6286
16	33183215 188580 379922 569990 3.128572882112 4.644012082112 6286 1507 1507 9473002 14275814014
17	33371795 176008 379918 569986 3.128572882112 4.644012082112 6286 59 59 370874 21881566
20	33547803 188580 379922 569990 3.128572882112 4.644012082112 6286 1500 1500 9429000 14143500000
21	33736383 176008 379918 569986 3.128572882112 4.644012082112 6286 52 52 326872 16997344
45	33912391 169695 379937 569974 3.128690387712 4.643888467712 6285 0 0 0 0
46	34082086 169722 379937 570005 3.128690387712 4.644129587712 6286 0 0 0 0
47	34251808 182294 379937 570005 3.128690387712 4.644129587712 6286 416 416 2614976 1087830016
48	34434102 2583 380965 568462 3.136888467712 4.631832467712 63 1725282.0172528 1725282.0172528 108692767.08693 1.8752567646053e+14
49	34436685 182265 379937 569974 3.128690387712 4.643888467712 6285 416 416 2614560 1087656960
50	34618950 2583 380965 568462 3.136888467712 4.631832467712 63 1725282.0172528 1725282.0172528 108692767.08693 1.8752567646053e+14
55	34621533 339390 379937 569975 3.128690387712 4.643888514912 12570 0 1 6285 6285
56	34960923 175980 379937 569974 3.128690387712 4.643888467712 6285 59 59 370815 21878085
57	35136903 188580 379932 570000 3.128690387712 4.644129587712 6286 1507 1507 9473002 14275814014
60	35325483 175980 379937 569974 3.128690387712 4.643888467712 6285 52 52 326820 16994640
61	35501463 188580 379932 570000 3.128690387712 4.644129587712 6286 1500 1500 9429000 14143500000
77	35690043 188580 379935 570003 3.128690387712 4.644129587712 6286 1448 1448 9102128 13179881344
78	35878623 238868 379935 570003 3.128690387712 4.644129587712 6286 3.1001995408 4.6156387408 24250.879719069 94761.328438036
84	36117491 169722 379930 569998 3.128645234912 4.644084434912 6286 0 0 0 0
85	36287213 169722 379930 569998 3.128645234912 4.644084434912 6286 0 0 0 0
86	36456935 182294 379930 569998 3.128645234912 4.644084434912 6286 416 416 2614976 1087830016
87	36639229 2583 381593 569090 3.141906834912 4.636850834912 63 1725282.0172528 1725282.0172528 108692767.08693 1.8752567646053e+14
88	36641812 182294 379930 569998 3.128645234912 4.644084434912 6286 416 416 2614976 1087830016
89	36824106 2583 381593 569090 3.141906834912 4.636850834912 63 1725282.0172528 1725282.0172528 108692767.08693 1.8752567646053e+14
94	36826689 339444 379930 569999 3.128645234912 4.644084482112 12572 0 1 6286 6286
95	37166133 176008 379930 569998 3.128645234912 4.644084434912 6286 59 59 370874 21881566
96	37342141 188550 379939 569976 3.128742807712 4.643940887712 6285 1507 1507 9471495 14273542965
99	37530691 176008 379930 569998 3.128645234912 4.644084434912 6286 52 52 326872 16997344
100	37706699 194835 379939 569976 3.128742807712 4.643940887712 6285 1500 1500 9427500 14141250000
103	37901534 364530 379941 569979 3.128742807712 4.643941902112 12570 73 74 923895 67909425
104	38266064 414810 379941 569979 3.128742807712 4.643941902112 12570 876000 888000 11086740000 9.7789572e+15
105	38680874 245115 379942 569979 3.128743822112 4.643941902112 6285 0.0176027744 0.0176027744 110.633437104 1.9474554344381
106	38925989 201120 379941 569978 3.128742807712 4.643940887712 6285 12000 12000 75420000 905040000000
107	39127109 2646 380728 568224 3.135011927712 4.629955927712 63 49767750.497678 49767750.497678 3135368281.3537 1.5604022634474e+17
108	39129755 201120 379942 569979 3.128743822112 4.643941902112 6285 12000 12000 75420000 905040000000
109	39330875 2646 380638 568135 3.134289582112 4.629233582112 63 49767750.497678 49767750.497678 3135368281.3537 1.5604022634474e+17
114	39333521 351960 379942 569979 3.128743822112 4.643941902112 12570 0 1 6285 6285
115	39685481 194866 379912 569979 3.128502702112 4.643941902112 6286 1507 1507 9473002 14275814014
116	39880347 182294 379928 569996 3.128645234912 4.644084434912 6286 59 59 370874 21881566
119	40062641 194835 379942 569979 3.128743822112 4.643941902112 6285 1500 1500 9427500 14141250000
120	40257476 182294 379928 569996 3.128645234912 4.644084434912 6286 52 52 326872 16997344
136	40439770 176008 379915 569982 3.128520462112 4.643959662112 6286 0 0 0 0
137	40615778 176008 379915 569982 3.128520462112 4.643959662112 6286 0 0 0 0
138	40791786 201152 379915 569982 3.128520462112 4.643959662112 6286 12000 12000 75432000 905184000000
139	40992938 2646 380671 568168 3.134548462112 4.629492462112 63 49767750.497678 49767750.497678 3135368281.3537 1.5604022634474e+17
140	40995584 201152 379915 569982 3.128520462112 4.643959662112 6286 12000 12000 75432000 905184000000
141	41196736 2646 380671 568168 3.134548462112 4.629492462112 63 49767750.497678 49767750.497678 3135368281.3537 1.5604022634474e+17
146	41199382 352016 379915 569983 3.128520462112 4.643960867712 12572 0 1 6286 6286
147	41551398 194866 379915 569982 3.128520462112 4.643959662112 6286 1507 1507 9473002 14275814014
148	41746264 182294 379924 569992 3.128618034912 4.644057234912 6286 59 59 370874 21881566
151	41928558 194866 379915 569982 3.128520462112 4.643959662112 6286 1500 1500 9429000 14143500000
152	42123424 182294 379924 569992 3.128618034912 4.644057234912 6286 52 52 326872 16997344
156	42305718 176008 379926 569994 3.128618034912 4.644057234912 6286 0 0 0 0
157	42481726 176008 379926 569994 3.128618034912 4.644057234912 6286 0 0 0 0
158	42657734 188580 379926 569994 3.128618034912 4.644057234912 6286 416 416 2614976 1087830016
159	42846314 2646 381529 569026 3.141397394912 4.636341394912 63 1725282.0172528 1725282.0172528 108692767.08693 1.8752567646053e+14
160	42848960 188580 379926 569994 3.128618034912 4.644057234912 6286 416 416 2614976 1087830016
161	43037540 2646 381529 569026 3.141397394912 4.636341394912 63 1725282.0172528 1725282.0172528 108692767.08693 1.8752567646053e+14
166	43040186 352016 379926 569995 3.128618034912 4.644066674912 12572 0 1 6286 6286
167	43392202 182294 379926 569994 3.128618034912 4.644057234912 6286 59 59 370874 21881566
168	43574496 194866 379913 569980 3.128520462112 4.643959662112 6286 1507 1507 9473002 14275814014
171	43769362 182294 379926 569994 3.128618034912 4.644057234912 6286 52 52 326872 16997344
172	43951656 194866 379913 569980 3.128520462112 4.643959662112 6286 1500 1500 9429000 14143500000
243	44146522 220010 379920 569988 3.128572882112 4.644012082112 6286 18251262 27351942 143330870172 3.3115723834383e+18
246	44366532 220010 379920 569988 3.128572882112 4.644012082112 6286 18025374 27126054 141910938204 3.2471396818278e+18
247	44586542 414876 379920 569988 3.128572882112 4.644012082112 12572 225888 227336 2848966064 6.4561648763584e+14
260	45001418 57920 380222 569625 3.130984082112 4.641118642112 1810 0.037 0.038 67.874999999998 2.5457649999999
261	45059338 256971 379920 569988 3.128572882112 4.644012082112 6286 0.037713179529 0.037967878418 237.96246685488 9.0083218898469
262	45316309 256989 379920 569988 3.128572882112 4.644012082112 6286 0.000115675876 0.000387897974 1.601386708611 0.00043556076625926
271	45573298 263315 379920 569988 3.128572882112 4.644012082112 6286 57.480841485182 57.869042835641 362394.07324578 20892439.083351
275	45836613 220010 379920 569988 3.128572882112 4.644012082112 6286 18023256 27123936 141897624456 3.2465385752918e+18
276	46056623 257726 379920 569988 3.128572882112 4.644012082112 6286 3.052861202112 4.568300402112 23953.310922076 92479.422135285
277	46314349 257726 379920 569988 3.128572882112 4.644012082112 6286 3.090717042112 4.606156242112 24191.272732316 94301.975790972
278	46572075 414876 379920 569988 3.128572882112 4.644012082112 12572 225888 227336 2848966064 6.4561648763584e+14
354	46986951 226296 379934 570002 3.128690387712 4.644129587712 6286 218086190 227186870 1399493227580 3.1162171487437e+20
356	47213247 220010 379934 570002 3.128690387712 4.644129587712 6286 18086190 27186870 142293227580 3.2644238423742e+18
357	47433257 220010 379934 570002 3.128690387712 4.644129587712 6286 18084742 27185422 142284125452 3.264011774367e+18
380	47653267 35 491534 491534 4.018480019712 4.018480019712 1 49112319 49112319 49112319 2.4120198775578e+15
436	47653302 256935 379920 569988 3.128572882112 4.644012082112 6286 0.000200176112 0.000201528017 1.263070418737 0.00025379443758451
437	47910237 194866 379935 570003 3.128690387712 4.644129587712 6286 1448 1448 9102128 13179881344
438	48105103 245154 379935 570003 3.128690387712 4.644129587712 6286 3.1001995408 4.6156387408 24250.879719069 94761.328438036
439	48350257 22 489215 489215 4 4 1 48038848 48038848 48038848 2.3077309171671e+15
437	48350279 45725 570033 614608 4.644370707712 4.999781587712 1475 1448 1448 2135800 3092638400
438	48396004 57525 570033 614608 4.644370707712 4.999781587712 1475 4.6158798608 4.9712907408 7070.53831868 33908.776071774
5	48453529 38376 570020 614625 4.644253202112 4.999905202112 1476 0 0 0 0
6	48491905 38376 570020 614625 4.644253202112 4.999905202112 1476 0 0 0 0
7	48530281 44280 570020 614625 4.644253202112 4.999905202112 1476 12000 12000 17712000 212544000000
8	48574561 627 570987 614637 4.651969042112 5 16 49316838.079966 49767750.497678 795833095.54513 3.9584585362192e+16
9	48575188 44280 570020 614625 4.644253202112 4.999905202112 1476 12000 12000 17712000 212544000000
10	48619468 643 570987 614637 4.651969042112 5 16 49316838.079966 49767750.497678 795833095.54513 3.9584585362192e+16
15	48620111 79704 570020 614626 4.644253202112 4.999906407712 2952 0 1 1476 1476
16	48699815 44280 570020 614625 4.644253202112 4.999905202112 1476 1507 1507 2224332 3352068324
17	48744095 41328 570016 614621 4.644253202112 4.999905202112 1476 59 59 87084 5137956
20	48785423 44280 570020 614625 4.644253202112 4.999905202112 1476 1500 1500 2214000 3321000000
21	48829703 41328 570016 614621 4.644253202112 4.999905202112 1476 52 52 76752 3991104
45	48871031 39852 570005 614610 4.644129587712 4.999781587712 1476 0 0 0 0
46	48910883 39825 570035 614610 4.644370707712 4.999781587712 1475 0 0 0 0
47	48950708 42775 570035 614610 4.644370707712 4.999781587712 1475 416 416 613600 255257600
48	48993483 643 571486 614637 4.655944467712 5 16 1667197.8681334 1725282.0172528 27546428.126926 47428519317348
49	48994126 42804 570005 614610 4.644129587712 4.999781587712 1476 416 416 614016 255430656
50	49036930 643 571486 614637 4.655944467712 5 16 1667197.8681334 1725282.0172528 27546428.126926 47428519317348
55	49037573 79704 570005 614611 4.644129587712 4.999781634912 2952 0 1 1476 1476
56	49117277 41328 570005 614610 4.644129587712 4.999781587712 1476 59 59 87084 5137956
57	49158605 44250 570030 614605 4.644370707712 4.999781587712 1475 1507 1507 2222825 3349797275
60	49202855 41328 570005 614610 4.644129587712 4.999781587712 1476 52 52 76752 3991104
61	49244183 44250 570030 614605 4.644370707712 4.999781587712 1475 1500 1500 2212500 3318750000
77	49288433 44250 570033 614608 4.644370707712 4.999781587712 1475 1448 1448 2135800 3092638400
78	49332683 56050 570033 614608 4.644370707712 4.999781587712 1475 4.6158798608 4.9712907408 7070.53831868 33908.776071774
84	49388733 39852 570028 614633 4.644325554912 4.999977554912 1476 0 0 0 0
85	49428585 39852 570028 614633 4.644325554912 4.999977554912 1476 0 0 0 0
86	49468437 42804 570028 614633 4.644325554912 4.999977554912 1476 416 416 614016 255430656
87	49511241 643 572114 614637 4.660962834912 5 16 1698924.1170969 1725282.0172528 27578154.375889 47535313741493
88	49511884 42804 570028 614633 4.644325554912 4.999977554912 1476 416 416 614016 255430656
89	49554688 643 572114 614637 4.660962834912 5 16 1698924.1170969 1725282.0172528 27578154.375889 47535313741493
94	49555331 79704 570028 614634 4.644325554912 4.999977602112 2952 0 1 1476 1476
95	49635035 41328 570028 614633 4.644325554912 4.999977554912 1476 59 59 87084 5137956
96	49676363 44280 570007 614612 4.644182007712 4.999834007712 1476 1507 1507 2224332 3352068324
99	49720643 41328 570028 614633 4.644325554912 4.999977554912 1476 52 52 76752 3991104
100	49761971 45756 570007 614612 4.644182007712 4.999834007712 1476 1500 1500 2214000 3321000000
103	49807727 85608 570009 614615 4.644182007712 4.999835022112 2952 73 74 216972 15948180
104	49893335 97416 570009 614615 4.644182007712 4.999835022112 2952 876000 888000 2603664000 2.29653792e+15
105	49990751 57564 570010 614615 4.644183022112 4.999835022112 1476 0.0176027744 0.0176027744 25.9816950144 0.4573499158681
106	50048315 47232 570009 614614 4.644182007712 4.999834007712 1476 12000 12000 17712000 212544000000
107	50095547 659 571249 614637 4.654067927712 5 16 48780066.210733 49767750.497678 795296323.6759 3.953192970351e+16
108	50096206 47232 570010 614615 4.644183022112 4.999835022112 1476 12000 12000 17712000 212544000000
109	50143438 659 571159 614637 4.653345582112 5 16 48864140.464679 49767750.497678 795380397.92984 3.9540139067338e+16
114	50144097 82656 570010 614615 4.644183022112 4.999835022112 2952 0 1 1476 1476
115	50226753 45756 570010 614615 4.644183022112 4.999835022112 1476 1507 1507 2224332 3352068324
116	50272509 42804 570026 614631 4.644325554912 4.999977554912 1476 59 59 87084 5137956
119	50315313 45756 570010 614615 4.644183022112 4.999835022112 1476 1500 1500 2214000 3321000000
120	50361069 42804 570026 614631 4.644325554912 4.999977554912 1476 52 52 76752 3991104
136	50403873 41328 570013 614618 4.644200782112 4.999852782112 1476 0 0 0 0
137	50445201 41328 570013 614618 4.644200782112 4.999852782112 1476 0 0 0 0
138	50486529 47232 570013 614618 4.644200782112 4.999852782112 1476 12000 12000 17712000 212544000000
139	50533761 658 571192 614637 4.653604462112 5 16 48937767.86699 49767750.497678 795454025.33215 3.954733996779e+16
140	50534419 47232 570013 614618 4.644200782112 4.999852782112 1476 12000 12000 17712000 212544000000
141	50581651 658 571192 614637 4.653604462112 5 16 48937767.86699 49767750.497678 795454025.33215 3.954733996779e+16
146	50582309 82656 570013 614619 4.644200782112 4.999853987712 2952 0 1 1476 1476
147	50664965 45756 570013 614618 4.644200782112 4.999852782112 1476 1507 1507 2224332 3352068324
148	50710721 42804 570022 614627 4.644298354912 4.999950354912 1476 59 59 87084 5137956
151	50753525 45756 570013 614618 4.644200782112 4.999852782112 1476 1500 1500 2214000 3321000000
152	50799281 42804 570022 614627 4.644298354912 4.999950354912 1476 52 52 76752 3991104
156	50842085 41328 570024 614629 4.644298354912 4.999950354912 1476 0 0 0 0
157	50883413 41328 570024 614629 4.644298354912 4.999950354912 1476 0 0 0 0
158	50924741 44280 570024 614629 4.644298354912 4.999950354912 1476 416 416 614016 255430656
159	50969021 659 572050 614637 4.660453394912 5 16 1681993.0466084 1725282.0172528 27561223.305401 47478071194678
160	50969680 44280 570024 614629 4.644298354912 4.999950354912 1476 416 416 614016 255430656
161	51013960 659 572050 614637 4.660453394912 5 16 1681993.0466084 1725282.0172528 27561223.305401 47478071194678
166	51014619 82656 570024 614630 4.644298354912 4.999959794912 2952 0 1 1476 1476
167	51097275 42804 570024 614629 4.644298354912 4.999950354912 1476 59 59 87084 5137956
168	51140079 45756 570011 614616 4.644200782112 4.999852782112 1476 1507 1507 2224332 3352068324
171	51185835 42804 570024 614629 4.644298354912 4.999950354912 1476 52 52 76752 3991104
172	51228639 45756 570011 614616 4.644200782112 4.999852782112 1476 1500 1500 2214000 3321000000
243	51274395 51660 570018 614623 4.644253202112 4.999905202112 1476 27353390 29489190 41949824040 1.1928299572006e+18
246	51326055 51660 570018 614623 4.644253202112 4.999905202112 1476 27127502 29263302 41616413352 1.1739533469686e+18
247	51377715 97416 570018 614623 4.644253202112 4.999905202112 2952 225888 227336 668958624 1.5159559906944e+14
260	51475131 13664 570108 614623 4.644976562112 4.999905202112 427 0.037 0.038 16.012 0.600538
261	51488795 60340 570018 614623 4.644253202112 4.999905202112 1476 0.037713179529 0.037967878418 55.8754204404 2.1152251362801
262	51549135 60344 570018 614623 4.644253202112 4.999905202112 1476 0.000115675876 0.000387897974 0.375632348244 0.00010208830695041
271	51609479 61827 570018 614623 4.644253202112 4.999905202112 1476 57.480841485182 57.869042835641 85092.778850041 4905693.425139
275	51671306 51660 570018 614623 4.644253202112 4.999905202112 1476 27125384 29261184 41613287184 1.1737770664628e+18
276	51722966 60516 570018 614623 4.644253202112 4.999905202112 1476 4.568541522112 4.924193522112 7005.6384626373 33266.914032852
277	51783482 60516 570018 614623 4.644253202112 4.999905202112 1476 4.606397362112 4.962049362112 7061.5136824773 33799.437893713
278	51843998 97416 570018 614623 4.644253202112 4.999905202112 2952 225888 227336 668958624 1.5159559906944e+14
354	51941414 53100 570032 614607 4.644370707712 4.999781587712 1475 227188318 229322670 336676853650 7.6848902249774e+19
356	51994514 51625 570032 614607 4.644370707712 4.999781587712 1475 27188318 29322670 41676853650 1.1781607897737e+18
357	52046139 51625 570032 614607 4.644370707712 4.999781587712 1475 27186870 29321222 41674717850 1.1780400966981e+18
436	52097764 60332 570018 614623 4.644253202112 4.999905202112 1476 0.000200176112 0.000201528017 0.296578664801 5.9592938661414e-05

