file 51898633 1764256019                                        
version 3
run mpTest-0-20251127-15:06:35-48442
attr configname mpTest
attr datetime 20251127-15:06:35
attr datetimef 20251127-150635
attr experiment mpTest
attr inifile mpTest.ini
attr iterationvars ""
attr iterationvarsd ""
attr iterationvarsf ""
attr measurement ""
attr network singledumbbell
attr processid 48442
attr repetition 0
attr replication #0
attr resultdir results
attr runnumber 0
attr seedset 0
config debug-on-errors true
config image-path ../../inet4.5/images
config extends General
config **.numberOfFlows 1
config *.client[0].app[0].connectAddress "\"server[0]\""
config *.client[0].app[0].tOpen 0.00846919251197291s
config *.client[0].app[0].tSend 0.00846919251197291s
config *.client[0].app[0].sendBytes 2GB
config **.ppp[*].queue.packetCapacity 100
config network singledumbbell
config sim-time-limit 5s
config record-eventlog false
config cmdenv-express-mode true
config cmdenv-redirect-output false
config cmdenv-output-file dctcpLog.txt
config **.client*.tcp.conn-8.cmdenv-log-level detail
config cmdenv-log-prefix "%t | %m |"
config cmdenv-event-banners false
config **.cmdenv-log-level off
config **.**.tcp.conn-*.cwnd:vector(removeRepeats).vector-recording true
config **.**.tcp.conn-*.rtt:vector(removeRepeats).vector-recording true
config **.**.tcp.conn-*.srtt:vector(removeRepeats).vector-recording true
config **.**.tcp.conn-*.throughput:vector(removeRepeats).vector-recording true
config **.**.tcp.conn-*.**.result-recording-modes vector(removeRepeats)
config **.**.queue.queueLength:vector(removeRepeats).vector-recording true
config **.**.queue.queueLength.result-recording-modes vector(removeRepeats)
config **.**.goodput:vector(removeRepeats).vector-recording true
config **.**.goodput.result-recording-modes vector(removeRepeats)
config **.**.bandwidth:vector(removeRepeats).vector-recording true
config **.**.bandwidth.result-recording-modes vector(removeRepeats)
config **.**.mbytesInFlight:vector(removeRepeats).vector-recording true
config **.**.mbytesInFlight.result-recording-modes vector(removeRepeats)
config **.scalar-recording false
config **.vector-recording true
config **.bin-recording false
config **.goodputInterval 1s
config **.throughputInterval 1s
config **.tcp.typename MpTcp
config **.tcp.tcpAlgorithmClass "\"MpTcpMetaCubic\""
config **.tcp.advertisedWindow 200000000
config **.tcp.windowScalingSupport true
config **.tcp.windowScalingFactor -1
config **.tcp.increasedIWEnabled true
config **.tcp.delayedAcksEnabled false
config **.tcp.timestampSupport true
config **.tcp.ecnWillingness false
config **.tcp.nagleEnabled true
config **.tcp.stopOperationTimeout 4000s
config **.tcp.mss 1448
config **.tcp.sackSupport true
config **.client[*].numApps 1
config **.client[*].app[*].typename MpTcpSessionApp
config *.client[*].app[0].tClose -1s
config *.client[*].app[0].sendBytes 2GB
config *.client[*].app[0].dataTransferMode "\"bytecount\""
config *.client[*].app[0].statistic-recording true
config **.server[*].numApps 1
config **.server[*].app[*].typename MpTcpSinkApp
config **.server[*].app[*].serverThreadModuleType "\"tcpgoodputapplications.applications.tcpapp.TcpGoodputSinkAppThread\""
config **.**.queue.typename DropTailQueue
config **.additiveIncreasePercent 0.05
config **.eta 0.95
config **.alpha 0.01
config **.fixedAvgRTTVal 0
config **.tcp.initialSsthresh 5792000

vector 0 singledumbbell.client[0].lo[0].lo rcvdPkFromHl:vector(packetBytes) ETV
attr interpolationmode none
attr recordingmode vector(packetBytes)
attr source packetReceivedFromUpper
attr title "packets received from higher layer, packetBytes"
vector 1 singledumbbell.client[0].lo[0].lo passedUpPk:vector(packetBytes) ETV
attr interpolationmode none
attr recordingmode vector(packetBytes)
attr source packetSentToUpper
attr title "packets passed to higher layer, packetBytes"
vector 2 singledumbbell.client[0].lo[0] packetDropInterfaceDown:vector(packetBytes) ETV
attr interpolationmode none
attr recordingmode vector(packetBytes)
attr source packetDropReasonIsInterfaceDown(packetDropped)
attr title "packet drops: interface down, packetBytes"
vector 3 singledumbbell.client[0].lo[0] packetDropNoCarrier:vector(packetBytes) ETV
attr interpolationmode none
attr recordingmode vector(packetBytes)
attr source packetDropReasonIsNoCarrier(packetDropped)
attr title "packet drops: no carrier, packetBytes"
vector 4 singledumbbell.client[0].ppp[0].queue queueLength:vector(removeRepeats) ETV
attr autoWarmupFilter false
attr interpolationmode sample-hold
attr recordingmode vector(removeRepeats)
attr source "warmup(atomic(constant0(packetPushEnded) + count(packetPushStarted) - count(packetPulled) - count(packetRemoved) - count(packetDropped)))"
attr title "queue length, removeRepeats"
attr unit pk
vector 5 singledumbbell.client[0].ppp[0].queue queueBitLength:vector ETV
attr autoWarmupFilter false
attr interpolationmode sample-hold
attr recordingmode vector
attr source "warmup(atomic(constant0(packetPushEnded) + sum(packetLength(packetPushStarted)) - sum(packetLength(packetPulled)) - sum(packetLength(packetRemoved)) - sum(packetLength(packetDropped))))"
attr title "queue bit length"
attr unit b
vector 6 singledumbbell.client[0].ppp[0].queue queueingTime:vector ETV
attr interpolationmode none
attr recordingmode vector
attr source queueingTime(packetPulled)
attr title "queueing times"
attr unit s
vector 7 singledumbbell.client[0].ppp[0].queue incomingPacketLengths:vector ETV
attr interpolationmode none
attr recordingmode vector
attr source packetLength(packetPushStarted)
attr title "incoming packet lengths"
attr unit b
vector 8 singledumbbell.client[0].ppp[0].queue incomingDataRate:vector ETV
attr interpolationmode linear
attr recordingmode vector
attr source throughput(packetPushStarted)
attr title "incoming datarate"
attr unit bps
vector 9 singledumbbell.client[0].ppp[0].queue outgoingPacketLengths:vector ETV
attr interpolationmode none
attr recordingmode vector
attr source packetLength(packetPulled)
attr title "outgoing packet lengths"
attr unit b
vector 10 singledumbbell.client[0].ppp[0].queue outgoingDataRate:vector ETV
attr interpolationmode linear
attr recordingmode vector
attr source throughput(packetPulled)
attr title "outgoing datarate"
attr unit bps
vector 11 singledumbbell.client[0].ppp[0].queue droppedPacketLengthsQueueOverflow:vector ETV
attr interpolationmode none
attr recordingmode vector
attr source packetLength(packetDropReasonIsQueueOverflow(packetDropped))
attr title "dropped packet lengths: queue overflow"
attr unit b
vector 12 singledumbbell.client[0].ppp[0].queue flowQueueingTime:vector ETV
attr interpolationmode none
attr recordingmode vector
attr source queueingTime(demuxFlow(packetPulled))
attr title "flow queueing times"
attr unit s
vector 13 singledumbbell.client[0].ppp[0].queue flowIncomingDataRate:vector ETV
attr interpolationmode linear
attr recordingmode vector
attr source throughput(flowPacketLength(demuxFlow(packetPushStarted)))
attr title "flow specific incoming data rate"
attr unit bps
vector 14 singledumbbell.client[0].ppp[0].queue flowOutgoingDataRate:vector ETV
attr interpolationmode linear
attr recordingmode vector
attr source throughput(flowPacketLength(demuxFlow(packetPulled)))
attr title "flow specific outgoing data rate"
attr unit bps
vector 15 singledumbbell.client[0].ppp[0].ppp transmissionState:vector ETV
attr interpolationmode sample-hold
attr recordingmode vector
attr source transmissionStateChanged
attr title "tx state"
vector 16 singledumbbell.client[0].ppp[0].ppp txPk:vector(packetBytes) ETV
attr interpolationmode none
attr recordingmode vector(packetBytes)
attr source packetSentToLower
attr title "packets transmitted, packetBytes"
vector 17 singledumbbell.client[0].ppp[0].ppp rxPkOk:vector(packetBytes) ETV
attr interpolationmode none
attr recordingmode vector(packetBytes)
attr source rxPkOk
attr title "packets received OK, packetBytes"
vector 18 singledumbbell.client[0].ppp[0].ppp packetDropIncorrectlyReceived:vector(packetBytes) ETV
attr interpolationmode none
attr recordingmode vector(packetBytes)
attr source packetDropReasonIsIncorrectlyReceived(packetDropped)
attr title "packet drop: incorrectly received, packetBytes"
vector 19 singledumbbell.client[0].ppp[0].ppp packetDropInterfaceDown:vector(packetBytes) ETV
attr interpolationmode none
attr recordingmode vector(packetBytes)
attr source packetDropReasonIsInterfaceDown(packetDropped)
attr title "packet drop: interface down, packetBytes"
vector 20 singledumbbell.client[0].ppp[0].ppp rcvdPkFromHl:vector(packetBytes) ETV
attr interpolationmode none
attr recordingmode vector(packetBytes)
attr source packetReceivedFromUpper
attr title "packets received from higher layer, packetBytes"
vector 21 singledumbbell.client[0].ppp[0].ppp passedUpPk:vector(packetBytes) ETV
attr interpolationmode none
attr recordingmode vector(packetBytes)
attr source packetSentToUpper
attr title "packets passed to higher layer, packetBytes"
vector 22 singledumbbell.client[0].ppp[0] packetDropInterfaceDown:vector(packetBytes) ETV
attr interpolationmode none
attr recordingmode vector(packetBytes)
attr source packetDropReasonIsInterfaceDown(packetDropped)
attr title "packet drops: interface down, packetBytes"
vector 23 singledumbbell.client[0].ppp[0] packetDropNoCarrier:vector(packetBytes) ETV
attr interpolationmode none
attr recordingmode vector(packetBytes)
attr source packetDropReasonIsNoCarrier(packetDropped)
attr title "packet drops: no carrier, packetBytes"
vector 24 singledumbbell.client[0].ipv4.ip packetDropAddressResolutionFailed:vector(packetBytes) ETV
attr interpolationmode none
attr recordingmode vector(packetBytes)
attr source packetDropReasonIsAddressResolutionFailed(packetDropped)
attr title "packet drop: address resolution failed, packetBytes"
vector 25 singledumbbell.client[0].ipv4.ip packetDropHopLimitReached:vector(packetBytes) ETV
attr interpolationmode none
attr recordingmode vector(packetBytes)
attr source packetDropReasonIsHopLimitReached(packetDropped)
attr title "packet drop: hop limit reached, packetBytes"
vector 26 singledumbbell.client[0].ipv4.ip packetDropForwardingDisabled:vector(packetBytes) ETV
attr interpolationmode none
attr recordingmode vector(packetBytes)
attr source packetDropReasonIsForwardingDisabled(packetDropped)
attr title "packet drop: forwarding disabled, packetBytes"
vector 27 singledumbbell.client[0].ipv4.ip packetDropNoInterfaceFound:vector(packetBytes) ETV
attr interpolationmode none
attr recordingmode vector(packetBytes)
attr source packetDropReasonIsNoInterfaceFound(packetDropped)
attr title "packet drop: no interface found, packetBytes"
vector 28 singledumbbell.client[0].ipv4.ip packetDropNoRouteFound:vector(packetBytes) ETV
attr interpolationmode none
attr recordingmode vector(packetBytes)
attr source packetDropReasonIsNoRouteFound(packetDropped)
attr title "packet drop: no route found, packetBytes"
vector 29 singledumbbell.client[0].ipv4.ip packetDropUndefined:vector(packetBytes) ETV
attr interpolationmode none
attr recordingmode vector(packetBytes)
attr source packetDropReasonIsUndefined(packetDropped)
attr title "packet drop: undefined, packetBytes"
vector 30 singledumbbell.client[0].ipv4.arp arpRequestSent:vector(packetBytes) ETV
attr recordingmode vector(packetBytes)
attr source arpRequestSent
attr title "ARP request sent, packetBytes"
vector 31 singledumbbell.client[0].ipv4.arp arpReplySent:vector(packetBytes) ETV
attr recordingmode vector(packetBytes)
attr source arpReplySent
attr title "ARP replies sent, packetBytes"
vector 32 singledumbbell.client[0].udp packetSent:vector(packetBytes) ETV
attr interpolationmode none
attr recordingmode vector(packetBytes)
attr source packetSent
attr title "packets sent, packetBytes"
vector 33 singledumbbell.client[0].udp packetReceived:vector(packetBytes) ETV
attr interpolationmode none
attr recordingmode vector(packetBytes)
attr source packetReceived
attr title "packets received, packetBytes"
vector 34 singledumbbell.client[0].udp passedUpPk:vector(count) ETV
attr interpolationmode none
attr recordingmode vector(count)
attr source packetSentToUpper
attr title "packets passed up, count"
vector 35 singledumbbell.client[0].udp droppedPkWrongPort:vector(count) ETV
attr interpolationmode none
attr recordingmode vector(count)
attr source packetDropReasonIsNoPortFound(packetDropped)
attr title "packets dropped (wrong port), count"
vector 36 singledumbbell.client[0].udp droppedPkBadChecksum:vector(count) ETV
attr interpolationmode none
attr recordingmode vector(count)
attr source packetDropReasonIsIncorrectlyReceived(packetDropped)
attr title "packets dropped (checksum error), count"
vector 37 singledumbbell.client[0].app[0] packetReceived:vector(packetBytes) ETV
attr interpolationmode none
attr recordingmode vector(packetBytes)
attr source packetReceived
attr title "packets received, packetBytes"
vector 38 singledumbbell.client[0].app[0] packetSent:vector(packetBytes) ETV
attr interpolationmode none
attr recordingmode vector(packetBytes)
attr source packetSent
attr title "packets sent, packetBytes"
vector 39 singledumbbell.client[0].app[0] endToEndDelay:vector ETV
attr interpolationmode none
attr recordingmode vector
attr source dataAge(packetReceived)
attr title "end-to-end delay"
attr unit s
vector 40 singledumbbell.server[0].lo[0].lo rcvdPkFromHl:vector(packetBytes) ETV
attr interpolationmode none
attr recordingmode vector(packetBytes)
attr source packetReceivedFromUpper
attr title "packets received from higher layer, packetBytes"
vector 41 singledumbbell.server[0].lo[0].lo passedUpPk:vector(packetBytes) ETV
attr interpolationmode none
attr recordingmode vector(packetBytes)
attr source packetSentToUpper
attr title "packets passed to higher layer, packetBytes"
vector 42 singledumbbell.server[0].lo[0] packetDropInterfaceDown:vector(packetBytes) ETV
attr interpolationmode none
attr recordingmode vector(packetBytes)
attr source packetDropReasonIsInterfaceDown(packetDropped)
attr title "packet drops: interface down, packetBytes"
vector 43 singledumbbell.server[0].lo[0] packetDropNoCarrier:vector(packetBytes) ETV
attr interpolationmode none
attr recordingmode vector(packetBytes)
attr source packetDropReasonIsNoCarrier(packetDropped)
attr title "packet drops: no carrier, packetBytes"
vector 44 singledumbbell.server[0].ppp[0].queue queueLength:vector(removeRepeats) ETV
attr autoWarmupFilter false
attr interpolationmode sample-hold
attr recordingmode vector(removeRepeats)
attr source "warmup(atomic(constant0(packetPushEnded) + count(packetPushStarted) - count(packetPulled) - count(packetRemoved) - count(packetDropped)))"
attr title "queue length, removeRepeats"
attr unit pk
vector 45 singledumbbell.server[0].ppp[0].queue queueBitLength:vector ETV
attr autoWarmupFilter false
attr interpolationmode sample-hold
attr recordingmode vector
attr source "warmup(atomic(constant0(packetPushEnded) + sum(packetLength(packetPushStarted)) - sum(packetLength(packetPulled)) - sum(packetLength(packetRemoved)) - sum(packetLength(packetDropped))))"
attr title "queue bit length"
attr unit b
vector 46 singledumbbell.server[0].ppp[0].queue queueingTime:vector ETV
attr interpolationmode none
attr recordingmode vector
attr source queueingTime(packetPulled)
attr title "queueing times"
attr unit s
vector 47 singledumbbell.server[0].ppp[0].queue incomingPacketLengths:vector ETV
attr interpolationmode none
attr recordingmode vector
attr source packetLength(packetPushStarted)
attr title "incoming packet lengths"
attr unit b
vector 48 singledumbbell.server[0].ppp[0].queue incomingDataRate:vector ETV
attr interpolationmode linear
attr recordingmode vector
attr source throughput(packetPushStarted)
attr title "incoming datarate"
attr unit bps
vector 49 singledumbbell.server[0].ppp[0].queue outgoingPacketLengths:vector ETV
attr interpolationmode none
attr recordingmode vector
attr source packetLength(packetPulled)
attr title "outgoing packet lengths"
attr unit b
vector 50 singledumbbell.server[0].ppp[0].queue outgoingDataRate:vector ETV
attr interpolationmode linear
attr recordingmode vector
attr source throughput(packetPulled)
attr title "outgoing datarate"
attr unit bps
vector 51 singledumbbell.server[0].ppp[0].queue droppedPacketLengthsQueueOverflow:vector ETV
attr interpolationmode none
attr recordingmode vector
attr source packetLength(packetDropReasonIsQueueOverflow(packetDropped))
attr title "dropped packet lengths: queue overflow"
attr unit b
vector 52 singledumbbell.server[0].ppp[0].queue flowQueueingTime:vector ETV
attr interpolationmode none
attr recordingmode vector
attr source queueingTime(demuxFlow(packetPulled))
attr title "flow queueing times"
attr unit s
vector 53 singledumbbell.server[0].ppp[0].queue flowIncomingDataRate:vector ETV
attr interpolationmode linear
attr recordingmode vector
attr source throughput(flowPacketLength(demuxFlow(packetPushStarted)))
attr title "flow specific incoming data rate"
attr unit bps
vector 54 singledumbbell.server[0].ppp[0].queue flowOutgoingDataRate:vector ETV
attr interpolationmode linear
attr recordingmode vector
attr source throughput(flowPacketLength(demuxFlow(packetPulled)))
attr title "flow specific outgoing data rate"
attr unit bps
vector 55 singledumbbell.server[0].ppp[0].ppp transmissionState:vector ETV
attr interpolationmode sample-hold
attr recordingmode vector
attr source transmissionStateChanged
attr title "tx state"
vector 56 singledumbbell.server[0].ppp[0].ppp txPk:vector(packetBytes) ETV
attr interpolationmode none
attr recordingmode vector(packetBytes)
attr source packetSentToLower
attr title "packets transmitted, packetBytes"
vector 57 singledumbbell.server[0].ppp[0].ppp rxPkOk:vector(packetBytes) ETV
attr interpolationmode none
attr recordingmode vector(packetBytes)
attr source rxPkOk
attr title "packets received OK, packetBytes"
vector 58 singledumbbell.server[0].ppp[0].ppp packetDropIncorrectlyReceived:vector(packetBytes) ETV
attr interpolationmode none
attr recordingmode vector(packetBytes)
attr source packetDropReasonIsIncorrectlyReceived(packetDropped)
attr title "packet drop: incorrectly received, packetBytes"
vector 59 singledumbbell.server[0].ppp[0].ppp packetDropInterfaceDown:vector(packetBytes) ETV
attr interpolationmode none
attr recordingmode vector(packetBytes)
attr source packetDropReasonIsInterfaceDown(packetDropped)
attr title "packet drop: interface down, packetBytes"
vector 60 singledumbbell.server[0].ppp[0].ppp rcvdPkFromHl:vector(packetBytes) ETV
attr interpolationmode none
attr recordingmode vector(packetBytes)
attr source packetReceivedFromUpper
attr title "packets received from higher layer, packetBytes"
vector 61 singledumbbell.server[0].ppp[0].ppp passedUpPk:vector(packetBytes) ETV
attr interpolationmode none
attr recordingmode vector(packetBytes)
attr source packetSentToUpper
attr title "packets passed to higher layer, packetBytes"
vector 62 singledumbbell.server[0].ppp[0] packetDropInterfaceDown:vector(packetBytes) ETV
attr interpolationmode none
attr recordingmode vector(packetBytes)
attr source packetDropReasonIsInterfaceDown(packetDropped)
attr title "packet drops: interface down, packetBytes"
vector 63 singledumbbell.server[0].ppp[0] packetDropNoCarrier:vector(packetBytes) ETV
attr interpolationmode none
attr recordingmode vector(packetBytes)
attr source packetDropReasonIsNoCarrier(packetDropped)
attr title "packet drops: no carrier, packetBytes"
vector 64 singledumbbell.server[0].ipv4.ip packetDropAddressResolutionFailed:vector(packetBytes) ETV
attr interpolationmode none
attr recordingmode vector(packetBytes)
attr source packetDropReasonIsAddressResolutionFailed(packetDropped)
attr title "packet drop: address resolution failed, packetBytes"
vector 65 singledumbbell.server[0].ipv4.ip packetDropHopLimitReached:vector(packetBytes) ETV
attr interpolationmode none
attr recordingmode vector(packetBytes)
attr source packetDropReasonIsHopLimitReached(packetDropped)
attr title "packet drop: hop limit reached, packetBytes"
vector 66 singledumbbell.server[0].ipv4.ip packetDropForwardingDisabled:vector(packetBytes) ETV
attr interpolationmode none
attr recordingmode vector(packetBytes)
attr source packetDropReasonIsForwardingDisabled(packetDropped)
attr title "packet drop: forwarding disabled, packetBytes"
vector 67 singledumbbell.server[0].ipv4.ip packetDropNoInterfaceFound:vector(packetBytes) ETV
attr interpolationmode none
attr recordingmode vector(packetBytes)
attr source packetDropReasonIsNoInterfaceFound(packetDropped)
attr title "packet drop: no interface found, packetBytes"
vector 68 singledumbbell.server[0].ipv4.ip packetDropNoRouteFound:vector(packetBytes) ETV
attr interpolationmode none
attr recordingmode vector(packetBytes)
attr source packetDropReasonIsNoRouteFound(packetDropped)
attr title "packet drop: no route found, packetBytes"
vector 69 singledumbbell.server[0].ipv4.ip packetDropUndefined:vector(packetBytes) ETV
attr interpolationmode none
attr recordingmode vector(packetBytes)
attr source packetDropReasonIsUndefined(packetDropped)
attr title "packet drop: undefined, packetBytes"
vector 70 singledumbbell.server[0].ipv4.arp arpRequestSent:vector(packetBytes) ETV
attr recordingmode vector(packetBytes)
attr source arpRequestSent
attr title "ARP request sent, packetBytes"
vector 71 singledumbbell.server[0].ipv4.arp arpReplySent:vector(packetBytes) ETV
attr recordingmode vector(packetBytes)
attr source arpReplySent
attr title "ARP replies sent, packetBytes"
vector 72 singledumbbell.server[0].udp packetSent:vector(packetBytes) ETV
attr interpolationmode none
attr recordingmode vector(packetBytes)
attr source packetSent
attr title "packets sent, packetBytes"
vector 73 singledumbbell.server[0].udp packetReceived:vector(packetBytes) ETV
attr interpolationmode none
attr recordingmode vector(packetBytes)
attr source packetReceived
attr title "packets received, packetBytes"
vector 74 singledumbbell.server[0].udp passedUpPk:vector(count) ETV
attr interpolationmode none
attr recordingmode vector(count)
attr source packetSentToUpper
attr title "packets passed up, count"
vector 75 singledumbbell.server[0].udp droppedPkWrongPort:vector(count) ETV
attr interpolationmode none
attr recordingmode vector(count)
attr source packetDropReasonIsNoPortFound(packetDropped)
attr title "packets dropped (wrong port), count"
vector 76 singledumbbell.server[0].udp droppedPkBadChecksum:vector(count) ETV
attr interpolationmode none
attr recordingmode vector(count)
attr source packetDropReasonIsIncorrectlyReceived(packetDropped)
attr title "packets dropped (checksum error), count"
vector 77 singledumbbell.server[0].app[0] packetReceived:vector(packetBytes) ETV
attr checkSignals false
attr interpolationmode none
attr recordingmode vector(packetBytes)
attr source packetReceived
attr title "packets received, packetBytes"
vector 78 singledumbbell.server[0].app[0] endToEndDelay:vector ETV
attr checkSignals false
attr interpolationmode none
attr recordingmode vector
attr source dataAge(packetReceived)
attr title "end-to-end delay"
attr unit s
vector 79 singledumbbell.router1.lo[0].lo rcvdPkFromHl:vector(packetBytes) ETV
attr interpolationmode none
attr recordingmode vector(packetBytes)
attr source packetReceivedFromUpper
attr title "packets received from higher layer, packetBytes"
vector 80 singledumbbell.router1.lo[0].lo passedUpPk:vector(packetBytes) ETV
attr interpolationmode none
attr recordingmode vector(packetBytes)
attr source packetSentToUpper
attr title "packets passed to higher layer, packetBytes"
vector 81 singledumbbell.router1.lo[0] packetDropInterfaceDown:vector(packetBytes) ETV
attr interpolationmode none
attr recordingmode vector(packetBytes)
attr source packetDropReasonIsInterfaceDown(packetDropped)
attr title "packet drops: interface down, packetBytes"
vector 82 singledumbbell.router1.lo[0] packetDropNoCarrier:vector(packetBytes) ETV
attr interpolationmode none
attr recordingmode vector(packetBytes)
attr source packetDropReasonIsNoCarrier(packetDropped)
attr title "packet drops: no carrier, packetBytes"
vector 83 singledumbbell.router1.ppp[0].queue queueLength:vector(removeRepeats) ETV
attr autoWarmupFilter false
attr interpolationmode sample-hold
attr recordingmode vector(removeRepeats)
attr source "warmup(atomic(constant0(packetPushEnded) + count(packetPushStarted) - count(packetPulled) - count(packetRemoved) - count(packetDropped)))"
attr title "queue length, removeRepeats"
attr unit pk
vector 84 singledumbbell.router1.ppp[0].queue queueBitLength:vector ETV
attr autoWarmupFilter false
attr interpolationmode sample-hold
attr recordingmode vector
attr source "warmup(atomic(constant0(packetPushEnded) + sum(packetLength(packetPushStarted)) - sum(packetLength(packetPulled)) - sum(packetLength(packetRemoved)) - sum(packetLength(packetDropped))))"
attr title "queue bit length"
attr unit b
vector 85 singledumbbell.router1.ppp[0].queue queueingTime:vector ETV
attr interpolationmode none
attr recordingmode vector
attr source queueingTime(packetPulled)
attr title "queueing times"
attr unit s
vector 86 singledumbbell.router1.ppp[0].queue incomingPacketLengths:vector ETV
attr interpolationmode none
attr recordingmode vector
attr source packetLength(packetPushStarted)
attr title "incoming packet lengths"
attr unit b
vector 87 singledumbbell.router1.ppp[0].queue incomingDataRate:vector ETV
attr interpolationmode linear
attr recordingmode vector
attr source throughput(packetPushStarted)
attr title "incoming datarate"
attr unit bps
vector 88 singledumbbell.router1.ppp[0].queue outgoingPacketLengths:vector ETV
attr interpolationmode none
attr recordingmode vector
attr source packetLength(packetPulled)
attr title "outgoing packet lengths"
attr unit b
vector 89 singledumbbell.router1.ppp[0].queue outgoingDataRate:vector ETV
attr interpolationmode linear
attr recordingmode vector
attr source throughput(packetPulled)
attr title "outgoing datarate"
attr unit bps
vector 90 singledumbbell.router1.ppp[0].queue droppedPacketLengthsQueueOverflow:vector ETV
attr interpolationmode none
attr recordingmode vector
attr source packetLength(packetDropReasonIsQueueOverflow(packetDropped))
attr title "dropped packet lengths: queue overflow"
attr unit b
vector 91 singledumbbell.router1.ppp[0].queue flowQueueingTime:vector ETV
attr interpolationmode none
attr recordingmode vector
attr source queueingTime(demuxFlow(packetPulled))
attr title "flow queueing times"
attr unit s
vector 92 singledumbbell.router1.ppp[0].queue flowIncomingDataRate:vector ETV
attr interpolationmode linear
attr recordingmode vector
attr source throughput(flowPacketLength(demuxFlow(packetPushStarted)))
attr title "flow specific incoming data rate"
attr unit bps
vector 93 singledumbbell.router1.ppp[0].queue flowOutgoingDataRate:vector ETV
attr interpolationmode linear
attr recordingmode vector
attr source throughput(flowPacketLength(demuxFlow(packetPulled)))
attr title "flow specific outgoing data rate"
attr unit bps
vector 94 singledumbbell.router1.ppp[0].ppp transmissionState:vector ETV
attr interpolationmode sample-hold
attr recordingmode vector
attr source transmissionStateChanged
attr title "tx state"
vector 95 singledumbbell.router1.ppp[0].ppp txPk:vector(packetBytes) ETV
attr interpolationmode none
attr recordingmode vector(packetBytes)
attr source packetSentToLower
attr title "packets transmitted, packetBytes"
vector 96 singledumbbell.router1.ppp[0].ppp rxPkOk:vector(packetBytes) ETV
attr interpolationmode none
attr recordingmode vector(packetBytes)
attr source rxPkOk
attr title "packets received OK, packetBytes"
vector 97 singledumbbell.router1.ppp[0].ppp packetDropIncorrectlyReceived:vector(packetBytes) ETV
attr interpolationmode none
attr recordingmode vector(packetBytes)
attr source packetDropReasonIsIncorrectlyReceived(packetDropped)
attr title "packet drop: incorrectly received, packetBytes"
vector 98 singledumbbell.router1.ppp[0].ppp packetDropInterfaceDown:vector(packetBytes) ETV
attr interpolationmode none
attr recordingmode vector(packetBytes)
attr source packetDropReasonIsInterfaceDown(packetDropped)
attr title "packet drop: interface down, packetBytes"
vector 99 singledumbbell.router1.ppp[0].ppp rcvdPkFromHl:vector(packetBytes) ETV
attr interpolationmode none
attr recordingmode vector(packetBytes)
attr source packetReceivedFromUpper
attr title "packets received from higher layer, packetBytes"
vector 100 singledumbbell.router1.ppp[0].ppp passedUpPk:vector(packetBytes) ETV
attr interpolationmode none
attr recordingmode vector(packetBytes)
attr source packetSentToUpper
attr title "packets passed to higher layer, packetBytes"
vector 101 singledumbbell.router1.ppp[0] packetDropInterfaceDown:vector(packetBytes) ETV
attr interpolationmode none
attr recordingmode vector(packetBytes)
attr source packetDropReasonIsInterfaceDown(packetDropped)
attr title "packet drops: interface down, packetBytes"
vector 102 singledumbbell.router1.ppp[0] packetDropNoCarrier:vector(packetBytes) ETV
attr interpolationmode none
attr recordingmode vector(packetBytes)
attr source packetDropReasonIsNoCarrier(packetDropped)
attr title "packet drops: no carrier, packetBytes"
vector 103 singledumbbell.router1.ppp[1].queue queueLength:vector(removeRepeats) ETV
attr autoWarmupFilter false
attr interpolationmode sample-hold
attr recordingmode vector(removeRepeats)
attr source "warmup(atomic(constant0(packetPushEnded) + count(packetPushStarted) - count(packetPulled) - count(packetRemoved) - count(packetDropped)))"
attr title "queue length, removeRepeats"
attr unit pk
vector 104 singledumbbell.router1.ppp[1].queue queueBitLength:vector ETV
attr autoWarmupFilter false
attr interpolationmode sample-hold
attr recordingmode vector
attr source "warmup(atomic(constant0(packetPushEnded) + sum(packetLength(packetPushStarted)) - sum(packetLength(packetPulled)) - sum(packetLength(packetRemoved)) - sum(packetLength(packetDropped))))"
attr title "queue bit length"
attr unit b
vector 105 singledumbbell.router1.ppp[1].queue queueingTime:vector ETV
attr interpolationmode none
attr recordingmode vector
attr source queueingTime(packetPulled)
attr title "queueing times"
attr unit s
vector 106 singledumbbell.router1.ppp[1].queue incomingPacketLengths:vector ETV
attr interpolationmode none
attr recordingmode vector
attr source packetLength(packetPushStarted)
attr title "incoming packet lengths"
attr unit b
vector 107 singledumbbell.router1.ppp[1].queue incomingDataRate:vector ETV
attr interpolationmode linear
attr recordingmode vector
attr source throughput(packetPushStarted)
attr title "incoming datarate"
attr unit bps
vector 108 singledumbbell.router1.ppp[1].queue outgoingPacketLengths:vector ETV
attr interpolationmode none
attr recordingmode vector
attr source packetLength(packetPulled)
attr title "outgoing packet lengths"
attr unit b
vector 109 singledumbbell.router1.ppp[1].queue outgoingDataRate:vector ETV
attr interpolationmode linear
attr recordingmode vector
attr source throughput(packetPulled)
attr title "outgoing datarate"
attr unit bps
vector 110 singledumbbell.router1.ppp[1].queue droppedPacketLengthsQueueOverflow:vector ETV
attr interpolationmode none
attr recordingmode vector
attr source packetLength(packetDropReasonIsQueueOverflow(packetDropped))
attr title "dropped packet lengths: queue overflow"
attr unit b
vector 111 singledumbbell.router1.ppp[1].queue flowQueueingTime:vector ETV
attr interpolationmode none
attr recordingmode vector
attr source queueingTime(demuxFlow(packetPulled))
attr title "flow queueing times"
attr unit s
vector 112 singledumbbell.router1.ppp[1].queue flowIncomingDataRate:vector ETV
attr interpolationmode linear
attr recordingmode vector
attr source throughput(flowPacketLength(demuxFlow(packetPushStarted)))
attr title "flow specific incoming data rate"
attr unit bps
vector 113 singledumbbell.router1.ppp[1].queue flowOutgoingDataRate:vector ETV
attr interpolationmode linear
attr recordingmode vector
attr source throughput(flowPacketLength(demuxFlow(packetPulled)))
attr title "flow specific outgoing data rate"
attr unit bps
vector 114 singledumbbell.router1.ppp[1].ppp transmissionState:vector ETV
attr interpolationmode sample-hold
attr recordingmode vector
attr source transmissionStateChanged
attr title "tx state"
vector 115 singledumbbell.router1.ppp[1].ppp txPk:vector(packetBytes) ETV
attr interpolationmode none
attr recordingmode vector(packetBytes)
attr source packetSentToLower
attr title "packets transmitted, packetBytes"
vector 116 singledumbbell.router1.ppp[1].ppp rxPkOk:vector(packetBytes) ETV
attr interpolationmode none
attr recordingmode vector(packetBytes)
attr source rxPkOk
attr title "packets received OK, packetBytes"
vector 117 singledumbbell.router1.ppp[1].ppp packetDropIncorrectlyReceived:vector(packetBytes) ETV
attr interpolationmode none
attr recordingmode vector(packetBytes)
attr source packetDropReasonIsIncorrectlyReceived(packetDropped)
attr title "packet drop: incorrectly received, packetBytes"
vector 118 singledumbbell.router1.ppp[1].ppp packetDropInterfaceDown:vector(packetBytes) ETV
attr interpolationmode none
attr recordingmode vector(packetBytes)
attr source packetDropReasonIsInterfaceDown(packetDropped)
attr title "packet drop: interface down, packetBytes"
vector 119 singledumbbell.router1.ppp[1].ppp rcvdPkFromHl:vector(packetBytes) ETV
attr interpolationmode none
attr recordingmode vector(packetBytes)
attr source packetReceivedFromUpper
attr title "packets received from higher layer, packetBytes"
vector 120 singledumbbell.router1.ppp[1].ppp passedUpPk:vector(packetBytes) ETV
attr interpolationmode none
attr recordingmode vector(packetBytes)
attr source packetSentToUpper
attr title "packets passed to higher layer, packetBytes"
vector 121 singledumbbell.router1.ppp[1] packetDropInterfaceDown:vector(packetBytes) ETV
attr interpolationmode none
attr recordingmode vector(packetBytes)
attr source packetDropReasonIsInterfaceDown(packetDropped)
attr title "packet drops: interface down, packetBytes"
vector 122 singledumbbell.router1.ppp[1] packetDropNoCarrier:vector(packetBytes) ETV
attr interpolationmode none
attr recordingmode vector(packetBytes)
attr source packetDropReasonIsNoCarrier(packetDropped)
attr title "packet drops: no carrier, packetBytes"
vector 123 singledumbbell.router1.ipv4.ip packetDropAddressResolutionFailed:vector(packetBytes) ETV
attr interpolationmode none
attr recordingmode vector(packetBytes)
attr source packetDropReasonIsAddressResolutionFailed(packetDropped)
attr title "packet drop: address resolution failed, packetBytes"
vector 124 singledumbbell.router1.ipv4.ip packetDropHopLimitReached:vector(packetBytes) ETV
attr interpolationmode none
attr recordingmode vector(packetBytes)
attr source packetDropReasonIsHopLimitReached(packetDropped)
attr title "packet drop: hop limit reached, packetBytes"
vector 125 singledumbbell.router1.ipv4.ip packetDropForwardingDisabled:vector(packetBytes) ETV
attr interpolationmode none
attr recordingmode vector(packetBytes)
attr source packetDropReasonIsForwardingDisabled(packetDropped)
attr title "packet drop: forwarding disabled, packetBytes"
vector 126 singledumbbell.router1.ipv4.ip packetDropNoInterfaceFound:vector(packetBytes) ETV
attr interpolationmode none
attr recordingmode vector(packetBytes)
attr source packetDropReasonIsNoInterfaceFound(packetDropped)
attr title "packet drop: no interface found, packetBytes"
vector 127 singledumbbell.router1.ipv4.ip packetDropNoRouteFound:vector(packetBytes) ETV
attr interpolationmode none
attr recordingmode vector(packetBytes)
attr source packetDropReasonIsNoRouteFound(packetDropped)
attr title "packet drop: no route found, packetBytes"
vector 128 singledumbbell.router1.ipv4.ip packetDropUndefined:vector(packetBytes) ETV
attr interpolationmode none
attr recordingmode vector(packetBytes)
attr source packetDropReasonIsUndefined(packetDropped)
attr title "packet drop: undefined, packetBytes"
vector 129 singledumbbell.router1.ipv4.arp arpRequestSent:vector(packetBytes) ETV
attr recordingmode vector(packetBytes)
attr source arpRequestSent
attr title "ARP request sent, packetBytes"
vector 130 singledumbbell.router1.ipv4.arp arpReplySent:vector(packetBytes) ETV
attr recordingmode vector(packetBytes)
attr source arpReplySent
attr title "ARP replies sent, packetBytes"
vector 131 singledumbbell.router2.lo[0].lo rcvdPkFromHl:vector(packetBytes) ETV
attr interpolationmode none
attr recordingmode vector(packetBytes)
attr source packetReceivedFromUpper
attr title "packets received from higher layer, packetBytes"
vector 132 singledumbbell.router2.lo[0].lo passedUpPk:vector(packetBytes) ETV
attr interpolationmode none
attr recordingmode vector(packetBytes)
attr source packetSentToUpper
attr title "packets passed to higher layer, packetBytes"
vector 133 singledumbbell.router2.lo[0] packetDropInterfaceDown:vector(packetBytes) ETV
attr interpolationmode none
attr recordingmode vector(packetBytes)
attr source packetDropReasonIsInterfaceDown(packetDropped)
attr title "packet drops: interface down, packetBytes"
vector 134 singledumbbell.router2.lo[0] packetDropNoCarrier:vector(packetBytes) ETV
attr interpolationmode none
attr recordingmode vector(packetBytes)
attr source packetDropReasonIsNoCarrier(packetDropped)
attr title "packet drops: no carrier, packetBytes"
vector 135 singledumbbell.router2.ppp[0].queue queueLength:vector(removeRepeats) ETV
attr autoWarmupFilter false
attr interpolationmode sample-hold
attr recordingmode vector(removeRepeats)
attr source "warmup(atomic(constant0(packetPushEnded) + count(packetPushStarted) - count(packetPulled) - count(packetRemoved) - count(packetDropped)))"
attr title "queue length, removeRepeats"
attr unit pk
vector 136 singledumbbell.router2.ppp[0].queue queueBitLength:vector ETV
attr autoWarmupFilter false
attr interpolationmode sample-hold
attr recordingmode vector
attr source "warmup(atomic(constant0(packetPushEnded) + sum(packetLength(packetPushStarted)) - sum(packetLength(packetPulled)) - sum(packetLength(packetRemoved)) - sum(packetLength(packetDropped))))"
attr title "queue bit length"
attr unit b
vector 137 singledumbbell.router2.ppp[0].queue queueingTime:vector ETV
attr interpolationmode none
attr recordingmode vector
attr source queueingTime(packetPulled)
attr title "queueing times"
attr unit s
vector 138 singledumbbell.router2.ppp[0].queue incomingPacketLengths:vector ETV
attr interpolationmode none
attr recordingmode vector
attr source packetLength(packetPushStarted)
attr title "incoming packet lengths"
attr unit b
vector 139 singledumbbell.router2.ppp[0].queue incomingDataRate:vector ETV
attr interpolationmode linear
attr recordingmode vector
attr source throughput(packetPushStarted)
attr title "incoming datarate"
attr unit bps
vector 140 singledumbbell.router2.ppp[0].queue outgoingPacketLengths:vector ETV
attr interpolationmode none
attr recordingmode vector
attr source packetLength(packetPulled)
attr title "outgoing packet lengths"
attr unit b
vector 141 singledumbbell.router2.ppp[0].queue outgoingDataRate:vector ETV
attr interpolationmode linear
attr recordingmode vector
attr source throughput(packetPulled)
attr title "outgoing datarate"
attr unit bps
vector 142 singledumbbell.router2.ppp[0].queue droppedPacketLengthsQueueOverflow:vector ETV
attr interpolationmode none
attr recordingmode vector
attr source packetLength(packetDropReasonIsQueueOverflow(packetDropped))
attr title "dropped packet lengths: queue overflow"
attr unit b
vector 143 singledumbbell.router2.ppp[0].queue flowQueueingTime:vector ETV
attr interpolationmode none
attr recordingmode vector
attr source queueingTime(demuxFlow(packetPulled))
attr title "flow queueing times"
attr unit s
vector 144 singledumbbell.router2.ppp[0].queue flowIncomingDataRate:vector ETV
attr interpolationmode linear
attr recordingmode vector
attr source throughput(flowPacketLength(demuxFlow(packetPushStarted)))
attr title "flow specific incoming data rate"
attr unit bps
vector 145 singledumbbell.router2.ppp[0].queue flowOutgoingDataRate:vector ETV
attr interpolationmode linear
attr recordingmode vector
attr source throughput(flowPacketLength(demuxFlow(packetPulled)))
attr title "flow specific outgoing data rate"
attr unit bps
vector 146 singledumbbell.router2.ppp[0].ppp transmissionState:vector ETV
attr interpolationmode sample-hold
attr recordingmode vector
attr source transmissionStateChanged
attr title "tx state"
vector 147 singledumbbell.router2.ppp[0].ppp txPk:vector(packetBytes) ETV
attr interpolationmode none
attr recordingmode vector(packetBytes)
attr source packetSentToLower
attr title "packets transmitted, packetBytes"
vector 148 singledumbbell.router2.ppp[0].ppp rxPkOk:vector(packetBytes) ETV
attr interpolationmode none
attr recordingmode vector(packetBytes)
attr source rxPkOk
attr title "packets received OK, packetBytes"
vector 149 singledumbbell.router2.ppp[0].ppp packetDropIncorrectlyReceived:vector(packetBytes) ETV
attr interpolationmode none
attr recordingmode vector(packetBytes)
attr source packetDropReasonIsIncorrectlyReceived(packetDropped)
attr title "packet drop: incorrectly received, packetBytes"
vector 150 singledumbbell.router2.ppp[0].ppp packetDropInterfaceDown:vector(packetBytes) ETV
attr interpolationmode none
attr recordingmode vector(packetBytes)
attr source packetDropReasonIsInterfaceDown(packetDropped)
attr title "packet drop: interface down, packetBytes"
vector 151 singledumbbell.router2.ppp[0].ppp rcvdPkFromHl:vector(packetBytes) ETV
attr interpolationmode none
attr recordingmode vector(packetBytes)
attr source packetReceivedFromUpper
attr title "packets received from higher layer, packetBytes"
vector 152 singledumbbell.router2.ppp[0].ppp passedUpPk:vector(packetBytes) ETV
attr interpolationmode none
attr recordingmode vector(packetBytes)
attr source packetSentToUpper
attr title "packets passed to higher layer, packetBytes"
vector 153 singledumbbell.router2.ppp[0] packetDropInterfaceDown:vector(packetBytes) ETV
attr interpolationmode none
attr recordingmode vector(packetBytes)
attr source packetDropReasonIsInterfaceDown(packetDropped)
attr title "packet drops: interface down, packetBytes"
vector 154 singledumbbell.router2.ppp[0] packetDropNoCarrier:vector(packetBytes) ETV
attr interpolationmode none
attr recordingmode vector(packetBytes)
attr source packetDropReasonIsNoCarrier(packetDropped)
attr title "packet drops: no carrier, packetBytes"
vector 155 singledumbbell.router2.ppp[1].queue queueLength:vector(removeRepeats) ETV
attr autoWarmupFilter false
attr interpolationmode sample-hold
attr recordingmode vector(removeRepeats)
attr source "warmup(atomic(constant0(packetPushEnded) + count(packetPushStarted) - count(packetPulled) - count(packetRemoved) - count(packetDropped)))"
attr title "queue length, removeRepeats"
attr unit pk
vector 156 singledumbbell.router2.ppp[1].queue queueBitLength:vector ETV
attr autoWarmupFilter false
attr interpolationmode sample-hold
attr recordingmode vector
attr source "warmup(atomic(constant0(packetPushEnded) + sum(packetLength(packetPushStarted)) - sum(packetLength(packetPulled)) - sum(packetLength(packetRemoved)) - sum(packetLength(packetDropped))))"
attr title "queue bit length"
attr unit b
vector 157 singledumbbell.router2.ppp[1].queue queueingTime:vector ETV
attr interpolationmode none
attr recordingmode vector
attr source queueingTime(packetPulled)
attr title "queueing times"
attr unit s
vector 158 singledumbbell.router2.ppp[1].queue incomingPacketLengths:vector ETV
attr interpolationmode none
attr recordingmode vector
attr source packetLength(packetPushStarted)
attr title "incoming packet lengths"
attr unit b
vector 159 singledumbbell.router2.ppp[1].queue incomingDataRate:vector ETV
attr interpolationmode linear
attr recordingmode vector
attr source throughput(packetPushStarted)
attr title "incoming datarate"
attr unit bps
vector 160 singledumbbell.router2.ppp[1].queue outgoingPacketLengths:vector ETV
attr interpolationmode none
attr recordingmode vector
attr source packetLength(packetPulled)
attr title "outgoing packet lengths"
attr unit b
vector 161 singledumbbell.router2.ppp[1].queue outgoingDataRate:vector ETV
attr interpolationmode linear
attr recordingmode vector
attr source throughput(packetPulled)
attr title "outgoing datarate"
attr unit bps
vector 162 singledumbbell.router2.ppp[1].queue droppedPacketLengthsQueueOverflow:vector ETV
attr interpolationmode none
attr recordingmode vector
attr source packetLength(packetDropReasonIsQueueOverflow(packetDropped))
attr title "dropped packet lengths: queue overflow"
attr unit b
vector 163 singledumbbell.router2.ppp[1].queue flowQueueingTime:vector ETV
attr interpolationmode none
attr recordingmode vector
attr source queueingTime(demuxFlow(packetPulled))
attr title "flow queueing times"
attr unit s
vector 164 singledumbbell.router2.ppp[1].queue flowIncomingDataRate:vector ETV
attr interpolationmode linear
attr recordingmode vector
attr source throughput(flowPacketLength(demuxFlow(packetPushStarted)))
attr title "flow specific incoming data rate"
attr unit bps
vector 165 singledumbbell.router2.ppp[1].queue flowOutgoingDataRate:vector ETV
attr interpolationmode linear
attr recordingmode vector
attr source throughput(flowPacketLength(demuxFlow(packetPulled)))
attr title "flow specific outgoing data rate"
attr unit bps
vector 166 singledumbbell.router2.ppp[1].ppp transmissionState:vector ETV
attr interpolationmode sample-hold
attr recordingmode vector
attr source transmissionStateChanged
attr title "tx state"
vector 167 singledumbbell.router2.ppp[1].ppp txPk:vector(packetBytes) ETV
attr interpolationmode none
attr recordingmode vector(packetBytes)
attr source packetSentToLower
attr title "packets transmitted, packetBytes"
vector 168 singledumbbell.router2.ppp[1].ppp rxPkOk:vector(packetBytes) ETV
attr interpolationmode none
attr recordingmode vector(packetBytes)
attr source rxPkOk
attr title "packets received OK, packetBytes"
vector 169 singledumbbell.router2.ppp[1].ppp packetDropIncorrectlyReceived:vector(packetBytes) ETV
attr interpolationmode none
attr recordingmode vector(packetBytes)
attr source packetDropReasonIsIncorrectlyReceived(packetDropped)
attr title "packet drop: incorrectly received, packetBytes"
vector 170 singledumbbell.router2.ppp[1].ppp packetDropInterfaceDown:vector(packetBytes) ETV
attr interpolationmode none
attr recordingmode vector(packetBytes)
attr source packetDropReasonIsInterfaceDown(packetDropped)
attr title "packet drop: interface down, packetBytes"
vector 171 singledumbbell.router2.ppp[1].ppp rcvdPkFromHl:vector(packetBytes) ETV
attr interpolationmode none
attr recordingmode vector(packetBytes)
attr source packetReceivedFromUpper
attr title "packets received from higher layer, packetBytes"
vector 172 singledumbbell.router2.ppp[1].ppp passedUpPk:vector(packetBytes) ETV
attr interpolationmode none
attr recordingmode vector(packetBytes)
attr source packetSentToUpper
attr title "packets passed to higher layer, packetBytes"
vector 173 singledumbbell.router2.ppp[1] packetDropInterfaceDown:vector(packetBytes) ETV
attr interpolationmode none
attr recordingmode vector(packetBytes)
attr source packetDropReasonIsInterfaceDown(packetDropped)
attr title "packet drops: interface down, packetBytes"
vector 174 singledumbbell.router2.ppp[1] packetDropNoCarrier:vector(packetBytes) ETV
attr interpolationmode none
attr recordingmode vector(packetBytes)
attr source packetDropReasonIsNoCarrier(packetDropped)
attr title "packet drops: no carrier, packetBytes"
vector 175 singledumbbell.router2.ipv4.ip packetDropAddressResolutionFailed:vector(packetBytes) ETV
attr interpolationmode none
attr recordingmode vector(packetBytes)
attr source packetDropReasonIsAddressResolutionFailed(packetDropped)
attr title "packet drop: address resolution failed, packetBytes"
vector 176 singledumbbell.router2.ipv4.ip packetDropHopLimitReached:vector(packetBytes) ETV
attr interpolationmode none
attr recordingmode vector(packetBytes)
attr source packetDropReasonIsHopLimitReached(packetDropped)
attr title "packet drop: hop limit reached, packetBytes"
vector 177 singledumbbell.router2.ipv4.ip packetDropForwardingDisabled:vector(packetBytes) ETV
attr interpolationmode none
attr recordingmode vector(packetBytes)
attr source packetDropReasonIsForwardingDisabled(packetDropped)
attr title "packet drop: forwarding disabled, packetBytes"
vector 178 singledumbbell.router2.ipv4.ip packetDropNoInterfaceFound:vector(packetBytes) ETV
attr interpolationmode none
attr recordingmode vector(packetBytes)
attr source packetDropReasonIsNoInterfaceFound(packetDropped)
attr title "packet drop: no interface found, packetBytes"
vector 179 singledumbbell.router2.ipv4.ip packetDropNoRouteFound:vector(packetBytes) ETV
attr interpolationmode none
attr recordingmode vector(packetBytes)
attr source packetDropReasonIsNoRouteFound(packetDropped)
attr title "packet drop: no route found, packetBytes"
vector 180 singledumbbell.router2.ipv4.ip packetDropUndefined:vector(packetBytes) ETV
attr interpolationmode none
attr recordingmode vector(packetBytes)
attr source packetDropReasonIsUndefined(packetDropped)
attr title "packet drop: undefined, packetBytes"
vector 181 singledumbbell.router2.ipv4.arp arpRequestSent:vector(packetBytes) ETV
attr recordingmode vector(packetBytes)
attr source arpRequestSent
attr title "ARP request sent, packetBytes"
vector 182 singledumbbell.router2.ipv4.arp arpReplySent:vector(packetBytes) ETV
attr recordingmode vector(packetBytes)
attr source arpReplySent
attr title "ARP replies sent, packetBytes"
vector 183 singledumbbell.server[0].app[0].thread_8 packetReceived:vector(packetBytes) ETV
attr interpolationmode none
attr recordingmode vector(packetBytes)
attr source packetReceived
attr title "packets received, packetBytes"
vector 184 singledumbbell.server[0].app[0].thread_8 endToEndDelay:vector ETV
attr interpolationmode none
attr recordingmode vector
attr source dataAge(packetReceived)
attr title "end-to-end delay"
attr unit s
vector 185 singledumbbell.server[0].app[0].thread_8 goodput:vector(removeRepeats) ETV
attr recordingmode vector(removeRepeats)
attr source goodput
attr unit bps
vector 186 singledumbbell.server[0].app[0].thread_9 packetReceived:vector(packetBytes) ETV
attr interpolationmode none
attr recordingmode vector(packetBytes)
attr source packetReceived
attr title "packets received, packetBytes"
vector 187 singledumbbell.server[0].app[0].thread_9 endToEndDelay:vector ETV
attr interpolationmode none
attr recordingmode vector
attr source dataAge(packetReceived)
attr title "end-to-end delay"
attr unit s
vector 188 singledumbbell.server[0].app[0].thread_9 goodput:vector(removeRepeats) ETV
attr recordingmode vector(removeRepeats)
attr source goodput
attr unit bps
vector 189 singledumbbell.server[0].tcp.conn-1 state:vector(removeRepeats) ETV
attr interpolationmode sample-hold
attr recordingmode vector(removeRepeats)
vector 190 singledumbbell.server[0].tcp.conn-1 sndWnd:vector(removeRepeats) ETV
attr interpolationmode sample-hold
attr recordingmode vector(removeRepeats)
vector 191 singledumbbell.server[0].tcp.conn-1 rcvWnd:vector(removeRepeats) ETV
attr interpolationmode sample-hold
attr recordingmode vector(removeRepeats)
vector 192 singledumbbell.server[0].tcp.conn-1 rcvAdv:vector(removeRepeats) ETV
attr interpolationmode sample-hold
attr recordingmode vector(removeRepeats)
vector 193 singledumbbell.server[0].tcp.conn-1 sndNxt:vector(removeRepeats) ETV
attr interpolationmode sample-hold
attr recordingmode vector(removeRepeats)
vector 194 singledumbbell.server[0].tcp.conn-1 sndAck:vector(removeRepeats) ETV
attr interpolationmode sample-hold
attr recordingmode vector(removeRepeats)
vector 195 singledumbbell.server[0].tcp.conn-1 rcvSeq:vector(removeRepeats) ETV
attr interpolationmode sample-hold
attr recordingmode vector(removeRepeats)
vector 196 singledumbbell.server[0].tcp.conn-1 rcvAck:vector(removeRepeats) ETV
attr interpolationmode sample-hold
attr recordingmode vector(removeRepeats)
vector 197 singledumbbell.server[0].tcp.conn-1 unacked:vector(removeRepeats) ETV
attr interpolationmode sample-hold
attr recordingmode vector(removeRepeats)
vector 198 singledumbbell.server[0].tcp.conn-1 dupAcks:vector(removeRepeats) ETV
attr interpolationmode sample-hold
attr recordingmode vector(removeRepeats)
vector 199 singledumbbell.server[0].tcp.conn-1 pipe:vector(removeRepeats) ETV
attr interpolationmode sample-hold
attr recordingmode vector(removeRepeats)
vector 200 singledumbbell.server[0].tcp.conn-1 sndSacks:vector(removeRepeats) ETV
attr interpolationmode sample-hold
attr recordingmode vector(removeRepeats)
vector 201 singledumbbell.server[0].tcp.conn-1 rcvSacks:vector(removeRepeats) ETV
attr interpolationmode sample-hold
attr recordingmode vector(removeRepeats)
vector 202 singledumbbell.server[0].tcp.conn-1 rcvOooSeg:vector(removeRepeats) ETV
attr interpolationmode sample-hold
attr recordingmode vector(removeRepeats)
vector 203 singledumbbell.server[0].tcp.conn-1 rcvNASeg:vector(removeRepeats) ETV
attr interpolationmode sample-hold
attr recordingmode vector(removeRepeats)
vector 204 singledumbbell.server[0].tcp.conn-1 sackedBytes:vector(removeRepeats) ETV
attr interpolationmode sample-hold
attr recordingmode vector(removeRepeats)
vector 205 singledumbbell.server[0].tcp.conn-1 tcpRcvQueueBytes:vector(removeRepeats) ETV
attr interpolationmode sample-hold
attr recordingmode vector(removeRepeats)
vector 206 singledumbbell.server[0].tcp.conn-1 tcpRcvQueueDrops:vector(removeRepeats) ETV
attr interpolationmode sample-hold
attr recordingmode vector(removeRepeats)
vector 207 singledumbbell.server[0].tcp.conn-1 tcpRcvPayloadBytes:vector(removeRepeats) ETV
attr interpolationmode sample-hold
attr recordingmode vector(removeRepeats)
vector 208 singledumbbell.server[0].tcp.conn-1 cwnd:vector(removeRepeats) ETV
attr interpolationmode sample-hold
attr recordingmode vector(removeRepeats)
vector 209 singledumbbell.server[0].tcp.conn-1 ssthresh:vector(removeRepeats) ETV
attr interpolationmode sample-hold
attr recordingmode vector(removeRepeats)
vector 210 singledumbbell.server[0].tcp.conn-1 rtt:vector(removeRepeats) ETV
attr interpolationmode sample-hold
attr recordingmode vector(removeRepeats)
vector 211 singledumbbell.server[0].tcp.conn-1 srtt:vector(removeRepeats) ETV
attr interpolationmode sample-hold
attr recordingmode vector(removeRepeats)
vector 212 singledumbbell.server[0].tcp.conn-1 rttvar:vector(removeRepeats) ETV
attr interpolationmode sample-hold
attr recordingmode vector(removeRepeats)
vector 213 singledumbbell.server[0].tcp.conn-1 rto:vector(removeRepeats) ETV
attr interpolationmode sample-hold
attr recordingmode vector(removeRepeats)
vector 214 singledumbbell.server[0].tcp.conn-1 numRtos:vector(removeRepeats) ETV
attr interpolationmode sample-hold
attr recordingmode vector(removeRepeats)
vector 215 singledumbbell.server[0].tcp.conn-1 load:vector(removeRepeats) ETV
attr interpolationmode sample-hold
attr recordingmode vector(removeRepeats)
vector 216 singledumbbell.server[0].tcp.conn-1 calcLoad:vector(removeRepeats) ETV
attr interpolationmode sample-hold
attr recordingmode vector(removeRepeats)
vector 217 singledumbbell.server[0].tcp.conn-1 markingProb:vector(removeRepeats) ETV
attr interpolationmode sample-hold
attr recordingmode vector(removeRepeats)
vector 218 singledumbbell.server[0].tcp.conn-1 throughput:vector(removeRepeats) ETV
attr interpolationmode sample-hold
attr recordingmode vector(removeRepeats)
vector 219 singledumbbell.server[0].tcp.conn-1 additiveIncrease:vector(removeRepeats) ETV
attr interpolationmode sample-hold
attr recordingmode vector(removeRepeats)
vector 220 singledumbbell.server[0].tcp.conn-1 pacingGain:vector(removeRepeats) ETV
attr interpolationmode sample-hold
attr recordingmode vector(removeRepeats)
vector 221 singledumbbell.server[0].tcp.conn-1 paceRate:vector(removeRepeats) ETV
attr interpolationmode sample-hold
attr recordingmode vector(removeRepeats)
vector 222 singledumbbell.server[0].tcp.conn-1 recover:vector(removeRepeats) ETV
attr interpolationmode sample-hold
attr recordingmode vector(removeRepeats)
vector 223 singledumbbell.server[0].tcp.conn-1 lossRecovery:vector(removeRepeats) ETV
attr interpolationmode sample-hold
attr recordingmode vector(removeRepeats)
vector 224 singledumbbell.server[0].tcp.conn-1 highRxt:vector(removeRepeats) ETV
attr interpolationmode sample-hold
attr recordingmode vector(removeRepeats)
vector 225 singledumbbell.server[0].tcp.conn-1 mDelivered:vector(removeRepeats) ETV
attr interpolationmode sample-hold
attr recordingmode vector(removeRepeats)
vector 226 singledumbbell.server[0].tcp.conn-1 mFirstSentTime:vector(removeRepeats) ETV
attr interpolationmode sample-hold
attr recordingmode vector(removeRepeats)
vector 227 singledumbbell.server[0].tcp.conn-1 mLastSentTime:vector(removeRepeats) ETV
attr interpolationmode sample-hold
attr recordingmode vector(removeRepeats)
vector 228 singledumbbell.server[0].tcp.conn-1 mbytesInFlight:vector(removeRepeats) ETV
attr interpolationmode sample-hold
attr recordingmode vector(removeRepeats)
vector 229 singledumbbell.server[0].tcp.conn-1 mbytesInFlightTotal:vector(removeRepeats) ETV
attr interpolationmode sample-hold
attr recordingmode vector(removeRepeats)
vector 230 singledumbbell.server[0].tcp.conn-1 mbytesLoss:vector(removeRepeats) ETV
attr interpolationmode sample-hold
attr recordingmode vector(removeRepeats)
vector 231 singledumbbell.server[0].tcp.conn-1 msendElapsed:vector(removeRepeats) ETV
attr interpolationmode sample-hold
attr recordingmode vector(removeRepeats)
vector 232 singledumbbell.server[0].tcp.conn-1 mackElapsed:vector(removeRepeats) ETV
attr interpolationmode sample-hold
attr recordingmode vector(removeRepeats)
vector 233 singledumbbell.server[0].tcp.conn-1 bicTarget:vector(removeRepeats) ETV
attr interpolationmode sample-hold
attr recordingmode vector(removeRepeats)
vector 234 singledumbbell.server[0].tcp.conn-1 originalPoint:vector(removeRepeats) ETV
attr interpolationmode sample-hold
attr recordingmode vector(removeRepeats)
vector 235 singledumbbell.server[0].tcp.conn-1 cwndSeg:vector(removeRepeats) ETV
attr interpolationmode sample-hold
attr recordingmode vector(removeRepeats)
vector 236 singledumbbell.server[0].tcp.conn-1 bicK:vector(removeRepeats) ETV
attr interpolationmode sample-hold
attr recordingmode vector(removeRepeats)
vector 237 singledumbbell.server[0].tcp.conn-1 cnt:vector(removeRepeats) ETV
attr interpolationmode sample-hold
attr recordingmode vector(removeRepeats)
vector 238 singledumbbell.server[0].tcp.conn-1 lastMaxWindow:vector(removeRepeats) ETV
attr interpolationmode sample-hold
attr recordingmode vector(removeRepeats)
vector 239 singledumbbell.server[0].tcp.conn-1 delayMin:vector(removeRepeats) ETV
attr interpolationmode sample-hold
attr recordingmode vector(removeRepeats)
vector 240 singledumbbell.server[0].tcp.conn-1 concave:vector(removeRepeats) ETV
attr interpolationmode sample-hold
attr recordingmode vector(removeRepeats)
vector 241 singledumbbell.server[0].tcp.conn-1 convex:vector(removeRepeats) ETV
attr interpolationmode sample-hold
attr recordingmode vector(removeRepeats)
vector 242 singledumbbell.server[0].tcp.conn-1 friendly:vector(removeRepeats) ETV
attr interpolationmode sample-hold
attr recordingmode vector(removeRepeats)
vector 243 singledumbbell.server[0].tcp.conn-1 sndUna:vector(removeRepeats) ETV
attr interpolationmode sample-hold
attr recordingmode vector(removeRepeats)
vector 244 singledumbbell.server[0].tcp.conn-1 recoveryPoint:vector(removeRepeats) ETV
attr interpolationmode sample-hold
attr recordingmode vector(removeRepeats)
vector 245 singledumbbell.server[0].tcp.conn-8 state:vector(removeRepeats) ETV
attr interpolationmode sample-hold
attr recordingmode vector(removeRepeats)
vector 246 singledumbbell.server[0].tcp.conn-8 sndWnd:vector(removeRepeats) ETV
attr interpolationmode sample-hold
attr recordingmode vector(removeRepeats)
vector 247 singledumbbell.server[0].tcp.conn-8 rcvWnd:vector(removeRepeats) ETV
attr interpolationmode sample-hold
attr recordingmode vector(removeRepeats)
vector 248 singledumbbell.server[0].tcp.conn-8 rcvAdv:vector(removeRepeats) ETV
attr interpolationmode sample-hold
attr recordingmode vector(removeRepeats)
vector 249 singledumbbell.server[0].tcp.conn-8 sndNxt:vector(removeRepeats) ETV
attr interpolationmode sample-hold
attr recordingmode vector(removeRepeats)
vector 250 singledumbbell.server[0].tcp.conn-8 sndAck:vector(removeRepeats) ETV
attr interpolationmode sample-hold
attr recordingmode vector(removeRepeats)
vector 251 singledumbbell.server[0].tcp.conn-8 rcvSeq:vector(removeRepeats) ETV
attr interpolationmode sample-hold
attr recordingmode vector(removeRepeats)
vector 252 singledumbbell.server[0].tcp.conn-8 rcvAck:vector(removeRepeats) ETV
attr interpolationmode sample-hold
attr recordingmode vector(removeRepeats)
vector 253 singledumbbell.server[0].tcp.conn-8 unacked:vector(removeRepeats) ETV
attr interpolationmode sample-hold
attr recordingmode vector(removeRepeats)
vector 254 singledumbbell.server[0].tcp.conn-8 dupAcks:vector(removeRepeats) ETV
attr interpolationmode sample-hold
attr recordingmode vector(removeRepeats)
vector 255 singledumbbell.server[0].tcp.conn-8 pipe:vector(removeRepeats) ETV
attr interpolationmode sample-hold
attr recordingmode vector(removeRepeats)
vector 256 singledumbbell.server[0].tcp.conn-8 sndSacks:vector(removeRepeats) ETV
attr interpolationmode sample-hold
attr recordingmode vector(removeRepeats)
vector 257 singledumbbell.server[0].tcp.conn-8 rcvSacks:vector(removeRepeats) ETV
attr interpolationmode sample-hold
attr recordingmode vector(removeRepeats)
vector 258 singledumbbell.server[0].tcp.conn-8 rcvOooSeg:vector(removeRepeats) ETV
attr interpolationmode sample-hold
attr recordingmode vector(removeRepeats)
vector 259 singledumbbell.server[0].tcp.conn-8 rcvNASeg:vector(removeRepeats) ETV
attr interpolationmode sample-hold
attr recordingmode vector(removeRepeats)
vector 260 singledumbbell.server[0].tcp.conn-8 sackedBytes:vector(removeRepeats) ETV
attr interpolationmode sample-hold
attr recordingmode vector(removeRepeats)
vector 261 singledumbbell.server[0].tcp.conn-8 tcpRcvQueueBytes:vector(removeRepeats) ETV
attr interpolationmode sample-hold
attr recordingmode vector(removeRepeats)
vector 262 singledumbbell.server[0].tcp.conn-8 tcpRcvQueueDrops:vector(removeRepeats) ETV
attr interpolationmode sample-hold
attr recordingmode vector(removeRepeats)
vector 263 singledumbbell.server[0].tcp.conn-8 tcpRcvPayloadBytes:vector(removeRepeats) ETV
attr interpolationmode sample-hold
attr recordingmode vector(removeRepeats)
vector 264 singledumbbell.server[0].tcp.conn-8 cwnd:vector(removeRepeats) ETV
attr interpolationmode sample-hold
attr recordingmode vector(removeRepeats)
vector 265 singledumbbell.server[0].tcp.conn-8 ssthresh:vector(removeRepeats) ETV
attr interpolationmode sample-hold
attr recordingmode vector(removeRepeats)
vector 266 singledumbbell.server[0].tcp.conn-8 rtt:vector(removeRepeats) ETV
attr interpolationmode sample-hold
attr recordingmode vector(removeRepeats)
vector 267 singledumbbell.server[0].tcp.conn-8 srtt:vector(removeRepeats) ETV
attr interpolationmode sample-hold
attr recordingmode vector(removeRepeats)
vector 268 singledumbbell.server[0].tcp.conn-8 rttvar:vector(removeRepeats) ETV
attr interpolationmode sample-hold
attr recordingmode vector(removeRepeats)
vector 269 singledumbbell.server[0].tcp.conn-8 rto:vector(removeRepeats) ETV
attr interpolationmode sample-hold
attr recordingmode vector(removeRepeats)
vector 270 singledumbbell.server[0].tcp.conn-8 numRtos:vector(removeRepeats) ETV
attr interpolationmode sample-hold
attr recordingmode vector(removeRepeats)
vector 271 singledumbbell.server[0].tcp.conn-8 load:vector(removeRepeats) ETV
attr interpolationmode sample-hold
attr recordingmode vector(removeRepeats)
vector 272 singledumbbell.server[0].tcp.conn-8 calcLoad:vector(removeRepeats) ETV
attr interpolationmode sample-hold
attr recordingmode vector(removeRepeats)
vector 273 singledumbbell.server[0].tcp.conn-8 markingProb:vector(removeRepeats) ETV
attr interpolationmode sample-hold
attr recordingmode vector(removeRepeats)
vector 274 singledumbbell.server[0].tcp.conn-8 throughput:vector(removeRepeats) ETV
attr interpolationmode sample-hold
attr recordingmode vector(removeRepeats)
vector 275 singledumbbell.server[0].tcp.conn-8 additiveIncrease:vector(removeRepeats) ETV
attr interpolationmode sample-hold
attr recordingmode vector(removeRepeats)
vector 276 singledumbbell.server[0].tcp.conn-8 pacingGain:vector(removeRepeats) ETV
attr interpolationmode sample-hold
attr recordingmode vector(removeRepeats)
vector 277 singledumbbell.server[0].tcp.conn-8 paceRate:vector(removeRepeats) ETV
attr interpolationmode sample-hold
attr recordingmode vector(removeRepeats)
vector 278 singledumbbell.server[0].tcp.conn-8 recover:vector(removeRepeats) ETV
attr interpolationmode sample-hold
attr recordingmode vector(removeRepeats)
vector 279 singledumbbell.server[0].tcp.conn-8 lossRecovery:vector(removeRepeats) ETV
attr interpolationmode sample-hold
attr recordingmode vector(removeRepeats)
vector 280 singledumbbell.server[0].tcp.conn-8 highRxt:vector(removeRepeats) ETV
attr interpolationmode sample-hold
attr recordingmode vector(removeRepeats)
vector 281 singledumbbell.server[0].tcp.conn-8 mDelivered:vector(removeRepeats) ETV
attr interpolationmode sample-hold
attr recordingmode vector(removeRepeats)
vector 282 singledumbbell.server[0].tcp.conn-8 mFirstSentTime:vector(removeRepeats) ETV
attr interpolationmode sample-hold
attr recordingmode vector(removeRepeats)
vector 283 singledumbbell.server[0].tcp.conn-8 mLastSentTime:vector(removeRepeats) ETV
attr interpolationmode sample-hold
attr recordingmode vector(removeRepeats)
vector 284 singledumbbell.server[0].tcp.conn-8 mbytesInFlight:vector(removeRepeats) ETV
attr interpolationmode sample-hold
attr recordingmode vector(removeRepeats)
vector 285 singledumbbell.server[0].tcp.conn-8 mbytesInFlightTotal:vector(removeRepeats) ETV
attr interpolationmode sample-hold
attr recordingmode vector(removeRepeats)
vector 286 singledumbbell.server[0].tcp.conn-8 mbytesLoss:vector(removeRepeats) ETV
attr interpolationmode sample-hold
attr recordingmode vector(removeRepeats)
vector 287 singledumbbell.server[0].tcp.conn-8 msendElapsed:vector(removeRepeats) ETV
attr interpolationmode sample-hold
attr recordingmode vector(removeRepeats)
vector 288 singledumbbell.server[0].tcp.conn-8 mackElapsed:vector(removeRepeats) ETV
attr interpolationmode sample-hold
attr recordingmode vector(removeRepeats)
vector 289 singledumbbell.server[0].tcp.conn-8 bicTarget:vector(removeRepeats) ETV
attr interpolationmode sample-hold
attr recordingmode vector(removeRepeats)
vector 290 singledumbbell.server[0].tcp.conn-8 originalPoint:vector(removeRepeats) ETV
attr interpolationmode sample-hold
attr recordingmode vector(removeRepeats)
vector 291 singledumbbell.server[0].tcp.conn-8 cwndSeg:vector(removeRepeats) ETV
attr interpolationmode sample-hold
attr recordingmode vector(removeRepeats)
vector 292 singledumbbell.server[0].tcp.conn-8 bicK:vector(removeRepeats) ETV
attr interpolationmode sample-hold
attr recordingmode vector(removeRepeats)
vector 293 singledumbbell.server[0].tcp.conn-8 cnt:vector(removeRepeats) ETV
attr interpolationmode sample-hold
attr recordingmode vector(removeRepeats)
vector 294 singledumbbell.server[0].tcp.conn-8 lastMaxWindow:vector(removeRepeats) ETV
attr interpolationmode sample-hold
attr recordingmode vector(removeRepeats)
vector 295 singledumbbell.server[0].tcp.conn-8 delayMin:vector(removeRepeats) ETV
attr interpolationmode sample-hold
attr recordingmode vector(removeRepeats)
vector 296 singledumbbell.server[0].tcp.conn-8 concave:vector(removeRepeats) ETV
attr interpolationmode sample-hold
attr recordingmode vector(removeRepeats)
vector 297 singledumbbell.server[0].tcp.conn-8 convex:vector(removeRepeats) ETV
attr interpolationmode sample-hold
attr recordingmode vector(removeRepeats)
vector 298 singledumbbell.server[0].tcp.conn-8 friendly:vector(removeRepeats) ETV
attr interpolationmode sample-hold
attr recordingmode vector(removeRepeats)
vector 299 singledumbbell.server[0].tcp.conn-8 sndUna:vector(removeRepeats) ETV
attr interpolationmode sample-hold
attr recordingmode vector(removeRepeats)
vector 300 singledumbbell.server[0].tcp.conn-8 recoveryPoint:vector(removeRepeats) ETV
attr interpolationmode sample-hold
attr recordingmode vector(removeRepeats)
vector 301 singledumbbell.server[0].tcp.conn-9 state:vector(removeRepeats) ETV
attr interpolationmode sample-hold
attr recordingmode vector(removeRepeats)
vector 302 singledumbbell.server[0].tcp.conn-9 sndWnd:vector(removeRepeats) ETV
attr interpolationmode sample-hold
attr recordingmode vector(removeRepeats)
vector 303 singledumbbell.server[0].tcp.conn-9 rcvWnd:vector(removeRepeats) ETV
attr interpolationmode sample-hold
attr recordingmode vector(removeRepeats)
vector 304 singledumbbell.server[0].tcp.conn-9 rcvAdv:vector(removeRepeats) ETV
attr interpolationmode sample-hold
attr recordingmode vector(removeRepeats)
vector 305 singledumbbell.server[0].tcp.conn-9 sndNxt:vector(removeRepeats) ETV
attr interpolationmode sample-hold
attr recordingmode vector(removeRepeats)
vector 306 singledumbbell.server[0].tcp.conn-9 sndAck:vector(removeRepeats) ETV
attr interpolationmode sample-hold
attr recordingmode vector(removeRepeats)
vector 307 singledumbbell.server[0].tcp.conn-9 rcvSeq:vector(removeRepeats) ETV
attr interpolationmode sample-hold
attr recordingmode vector(removeRepeats)
vector 308 singledumbbell.server[0].tcp.conn-9 rcvAck:vector(removeRepeats) ETV
attr interpolationmode sample-hold
attr recordingmode vector(removeRepeats)
vector 309 singledumbbell.server[0].tcp.conn-9 unacked:vector(removeRepeats) ETV
attr interpolationmode sample-hold
attr recordingmode vector(removeRepeats)
vector 310 singledumbbell.server[0].tcp.conn-9 dupAcks:vector(removeRepeats) ETV
attr interpolationmode sample-hold
attr recordingmode vector(removeRepeats)
vector 311 singledumbbell.server[0].tcp.conn-9 pipe:vector(removeRepeats) ETV
attr interpolationmode sample-hold
attr recordingmode vector(removeRepeats)
vector 312 singledumbbell.server[0].tcp.conn-9 sndSacks:vector(removeRepeats) ETV
attr interpolationmode sample-hold
attr recordingmode vector(removeRepeats)
vector 313 singledumbbell.server[0].tcp.conn-9 rcvSacks:vector(removeRepeats) ETV
attr interpolationmode sample-hold
attr recordingmode vector(removeRepeats)
vector 314 singledumbbell.server[0].tcp.conn-9 rcvOooSeg:vector(removeRepeats) ETV
attr interpolationmode sample-hold
attr recordingmode vector(removeRepeats)
vector 315 singledumbbell.server[0].tcp.conn-9 rcvNASeg:vector(removeRepeats) ETV
attr interpolationmode sample-hold
attr recordingmode vector(removeRepeats)
vector 316 singledumbbell.server[0].tcp.conn-9 sackedBytes:vector(removeRepeats) ETV
attr interpolationmode sample-hold
attr recordingmode vector(removeRepeats)
vector 317 singledumbbell.server[0].tcp.conn-9 tcpRcvQueueBytes:vector(removeRepeats) ETV
attr interpolationmode sample-hold
attr recordingmode vector(removeRepeats)
vector 318 singledumbbell.server[0].tcp.conn-9 tcpRcvQueueDrops:vector(removeRepeats) ETV
attr interpolationmode sample-hold
attr recordingmode vector(removeRepeats)
vector 319 singledumbbell.server[0].tcp.conn-9 tcpRcvPayloadBytes:vector(removeRepeats) ETV
attr interpolationmode sample-hold
attr recordingmode vector(removeRepeats)
vector 320 singledumbbell.server[0].tcp.conn-9 cwnd:vector(removeRepeats) ETV
attr interpolationmode sample-hold
attr recordingmode vector(removeRepeats)
vector 321 singledumbbell.server[0].tcp.conn-9 ssthresh:vector(removeRepeats) ETV
attr interpolationmode sample-hold
attr recordingmode vector(removeRepeats)
vector 322 singledumbbell.server[0].tcp.conn-9 rtt:vector(removeRepeats) ETV
attr interpolationmode sample-hold
attr recordingmode vector(removeRepeats)
vector 323 singledumbbell.server[0].tcp.conn-9 srtt:vector(removeRepeats) ETV
attr interpolationmode sample-hold
attr recordingmode vector(removeRepeats)
vector 324 singledumbbell.server[0].tcp.conn-9 rttvar:vector(removeRepeats) ETV
attr interpolationmode sample-hold
attr recordingmode vector(removeRepeats)
vector 325 singledumbbell.server[0].tcp.conn-9 rto:vector(removeRepeats) ETV
attr interpolationmode sample-hold
attr recordingmode vector(removeRepeats)
vector 326 singledumbbell.server[0].tcp.conn-9 numRtos:vector(removeRepeats) ETV
attr interpolationmode sample-hold
attr recordingmode vector(removeRepeats)
vector 327 singledumbbell.server[0].tcp.conn-9 load:vector(removeRepeats) ETV
attr interpolationmode sample-hold
attr recordingmode vector(removeRepeats)
vector 328 singledumbbell.server[0].tcp.conn-9 calcLoad:vector(removeRepeats) ETV
attr interpolationmode sample-hold
attr recordingmode vector(removeRepeats)
vector 329 singledumbbell.server[0].tcp.conn-9 markingProb:vector(removeRepeats) ETV
attr interpolationmode sample-hold
attr recordingmode vector(removeRepeats)
vector 330 singledumbbell.server[0].tcp.conn-9 throughput:vector(removeRepeats) ETV
attr interpolationmode sample-hold
attr recordingmode vector(removeRepeats)
vector 331 singledumbbell.server[0].tcp.conn-9 additiveIncrease:vector(removeRepeats) ETV
attr interpolationmode sample-hold
attr recordingmode vector(removeRepeats)
vector 332 singledumbbell.server[0].tcp.conn-9 pacingGain:vector(removeRepeats) ETV
attr interpolationmode sample-hold
attr recordingmode vector(removeRepeats)
vector 333 singledumbbell.server[0].tcp.conn-9 paceRate:vector(removeRepeats) ETV
attr interpolationmode sample-hold
attr recordingmode vector(removeRepeats)
vector 334 singledumbbell.server[0].tcp.conn-9 recover:vector(removeRepeats) ETV
attr interpolationmode sample-hold
attr recordingmode vector(removeRepeats)
vector 335 singledumbbell.server[0].tcp.conn-9 lossRecovery:vector(removeRepeats) ETV
attr interpolationmode sample-hold
attr recordingmode vector(removeRepeats)
vector 336 singledumbbell.server[0].tcp.conn-9 highRxt:vector(removeRepeats) ETV
attr interpolationmode sample-hold
attr recordingmode vector(removeRepeats)
vector 337 singledumbbell.server[0].tcp.conn-9 mDelivered:vector(removeRepeats) ETV
attr interpolationmode sample-hold
attr recordingmode vector(removeRepeats)
vector 338 singledumbbell.server[0].tcp.conn-9 mFirstSentTime:vector(removeRepeats) ETV
attr interpolationmode sample-hold
attr recordingmode vector(removeRepeats)
vector 339 singledumbbell.server[0].tcp.conn-9 mLastSentTime:vector(removeRepeats) ETV
attr interpolationmode sample-hold
attr recordingmode vector(removeRepeats)
vector 340 singledumbbell.server[0].tcp.conn-9 mbytesInFlight:vector(removeRepeats) ETV
attr interpolationmode sample-hold
attr recordingmode vector(removeRepeats)
vector 341 singledumbbell.server[0].tcp.conn-9 mbytesInFlightTotal:vector(removeRepeats) ETV
attr interpolationmode sample-hold
attr recordingmode vector(removeRepeats)
vector 342 singledumbbell.server[0].tcp.conn-9 mbytesLoss:vector(removeRepeats) ETV
attr interpolationmode sample-hold
attr recordingmode vector(removeRepeats)
vector 343 singledumbbell.server[0].tcp.conn-9 msendElapsed:vector(removeRepeats) ETV
attr interpolationmode sample-hold
attr recordingmode vector(removeRepeats)
vector 344 singledumbbell.server[0].tcp.conn-9 mackElapsed:vector(removeRepeats) ETV
attr interpolationmode sample-hold
attr recordingmode vector(removeRepeats)
vector 345 singledumbbell.server[0].tcp.conn-9 bicTarget:vector(removeRepeats) ETV
attr interpolationmode sample-hold
attr recordingmode vector(removeRepeats)
vector 346 singledumbbell.server[0].tcp.conn-9 originalPoint:vector(removeRepeats) ETV
attr interpolationmode sample-hold
attr recordingmode vector(removeRepeats)
vector 347 singledumbbell.server[0].tcp.conn-9 cwndSeg:vector(removeRepeats) ETV
attr interpolationmode sample-hold
attr recordingmode vector(removeRepeats)
vector 348 singledumbbell.server[0].tcp.conn-9 bicK:vector(removeRepeats) ETV
attr interpolationmode sample-hold
attr recordingmode vector(removeRepeats)
vector 349 singledumbbell.server[0].tcp.conn-9 cnt:vector(removeRepeats) ETV
attr interpolationmode sample-hold
attr recordingmode vector(removeRepeats)
vector 350 singledumbbell.server[0].tcp.conn-9 lastMaxWindow:vector(removeRepeats) ETV
attr interpolationmode sample-hold
attr recordingmode vector(removeRepeats)
vector 351 singledumbbell.server[0].tcp.conn-9 delayMin:vector(removeRepeats) ETV
attr interpolationmode sample-hold
attr recordingmode vector(removeRepeats)
vector 352 singledumbbell.server[0].tcp.conn-9 concave:vector(removeRepeats) ETV
attr interpolationmode sample-hold
attr recordingmode vector(removeRepeats)
vector 353 singledumbbell.server[0].tcp.conn-9 convex:vector(removeRepeats) ETV
attr interpolationmode sample-hold
attr recordingmode vector(removeRepeats)
vector 354 singledumbbell.server[0].tcp.conn-9 friendly:vector(removeRepeats) ETV
attr interpolationmode sample-hold
attr recordingmode vector(removeRepeats)
vector 355 singledumbbell.server[0].tcp.conn-9 sndUna:vector(removeRepeats) ETV
attr interpolationmode sample-hold
attr recordingmode vector(removeRepeats)
vector 356 singledumbbell.server[0].tcp.conn-9 recoveryPoint:vector(removeRepeats) ETV
attr interpolationmode sample-hold
attr recordingmode vector(removeRepeats)
vector 357 singledumbbell.client[0].tcp.conn-10 state:vector(removeRepeats) ETV
attr interpolationmode sample-hold
attr recordingmode vector(removeRepeats)
vector 358 singledumbbell.client[0].tcp.conn-10 sndWnd:vector(removeRepeats) ETV
attr interpolationmode sample-hold
attr recordingmode vector(removeRepeats)
vector 359 singledumbbell.client[0].tcp.conn-10 rcvWnd:vector(removeRepeats) ETV
attr interpolationmode sample-hold
attr recordingmode vector(removeRepeats)
vector 360 singledumbbell.client[0].tcp.conn-10 rcvAdv:vector(removeRepeats) ETV
attr interpolationmode sample-hold
attr recordingmode vector(removeRepeats)
vector 361 singledumbbell.client[0].tcp.conn-10 sndNxt:vector(removeRepeats) ETV
attr interpolationmode sample-hold
attr recordingmode vector(removeRepeats)
vector 362 singledumbbell.client[0].tcp.conn-10 sndAck:vector(removeRepeats) ETV
attr interpolationmode sample-hold
attr recordingmode vector(removeRepeats)
vector 363 singledumbbell.client[0].tcp.conn-10 rcvSeq:vector(removeRepeats) ETV
attr interpolationmode sample-hold
attr recordingmode vector(removeRepeats)
vector 364 singledumbbell.client[0].tcp.conn-10 rcvAck:vector(removeRepeats) ETV
attr interpolationmode sample-hold
attr recordingmode vector(removeRepeats)
vector 365 singledumbbell.client[0].tcp.conn-10 unacked:vector(removeRepeats) ETV
attr interpolationmode sample-hold
attr recordingmode vector(removeRepeats)
vector 366 singledumbbell.client[0].tcp.conn-10 dupAcks:vector(removeRepeats) ETV
attr interpolationmode sample-hold
attr recordingmode vector(removeRepeats)
vector 367 singledumbbell.client[0].tcp.conn-10 pipe:vector(removeRepeats) ETV
attr interpolationmode sample-hold
attr recordingmode vector(removeRepeats)
vector 368 singledumbbell.client[0].tcp.conn-10 sndSacks:vector(removeRepeats) ETV
attr interpolationmode sample-hold
attr recordingmode vector(removeRepeats)
vector 369 singledumbbell.client[0].tcp.conn-10 rcvSacks:vector(removeRepeats) ETV
attr interpolationmode sample-hold
attr recordingmode vector(removeRepeats)
vector 370 singledumbbell.client[0].tcp.conn-10 rcvOooSeg:vector(removeRepeats) ETV
attr interpolationmode sample-hold
attr recordingmode vector(removeRepeats)
vector 371 singledumbbell.client[0].tcp.conn-10 rcvNASeg:vector(removeRepeats) ETV
attr interpolationmode sample-hold
attr recordingmode vector(removeRepeats)
vector 372 singledumbbell.client[0].tcp.conn-10 sackedBytes:vector(removeRepeats) ETV
attr interpolationmode sample-hold
attr recordingmode vector(removeRepeats)
[...]
61	35388631 189240 382366 573103 3.130180719798 4.650924559798 6308 1500 1500 9462000 14193000000
77	35577871 189240 382369 573106 3.130180719798 4.650924559798 6308 1448 1448 9133984 13226008832
84	35767111 170316 382364 573101 3.130135566998 4.650879406998 6308 0 0 0 0
85	35937427 170316 382364 573101 3.130135566998 4.650879406998 6308 0 0 0 0
86	36107743 182932 382364 573101 3.130135566998 4.650879406998 6308 416 416 2624128 1091637248
87	36290675 2583 385085 572587 3.151836366998 4.646780366998 63 1725282.0172528 1725282.0172528 108692767.08693 1.8752567646053e+14
88	36293258 182932 382364 573101 3.130135566998 4.650879406998 6308 416 416 2624128 1091637248
89	36476190 2583 385085 572587 3.151836366998 4.646780366998 63 1725282.0172528 1725282.0172528 108692767.08693 1.8752567646053e+14
94	36478773 340632 382364 573102 3.130135566998 4.650879454198 12616 0 1 6308 6308
95	36819405 176624 382364 573101 3.130135566998 4.650879406998 6308 59 59 372172 21958148
96	36996029 188955 382355 573086 3.130096029987 4.650783451568 6309 1507 1507 9507663 14328048141
99	37184984 176624 382364 573101 3.130135566998 4.650879406998 6308 52 52 328016 17056832
100	37361608 195264 382355 573086 3.130096029987 4.650783451568 6309 1500 1500 9463500 14195250000
103	37556872 365578 382343 573088 3.129993034198 4.650783451568 12617 88 91 1133286 101802556
104	37922450 428663 382343 573088 3.129993034198 4.650783451568 12617 1056000 1092000 13599432000 1.4659568064e+16
105	38351113 251451 382343 573081 3.129993034198 4.650736874198 6308 0.0212195744 0.0217018144 136.28258579578 2.9444313557635
106	38602564 201573 382357 573088 3.130096029987 4.650783451568 6309 12000 12000 75708000 908496000000
107	38804137 2635 383385 570845 3.138265144047 4.632892979798 63 49346887.76386 50599984.138069 3135922892.8181 1.5609827333726e+17
108	38806772 201856 382343 573081 3.129993034198 4.650736874198 6308 12000 12000 75696000 908352000000
109	39008628 2646 384403 571898 3.146389194198 4.641333194198 63 49767750.497678 49767750.497678 3135368281.3537 1.5604022634474e+17
114	39011274 353248 382343 573081 3.129993034198 4.650736874198 12616 0 1 6308 6308
115	39364522 195548 382343 573081 3.129993034198 4.650736874198 6308 1507 1507 9506156 14325777092
116	39560070 182932 382362 573099 3.130135566998 4.650879406998 6308 59 59 372172 21958148
119	39743002 195548 382343 573081 3.129993034198 4.650736874198 6308 1500 1500 9462000 14193000000
120	39938550 182932 382362 573099 3.130135566998 4.650879406998 6308 52 52 328016 17056832
136	40121482 176624 382347 573084 3.130010794198 4.650754634198 6308 0 0 0 0
137	40298106 176624 382347 573084 3.130010794198 4.650754634198 6308 0 0 0 0
138	40474730 201856 382347 573084 3.130010794198 4.650754634198 6308 12000 12000 75696000 908352000000
139	40676586 2646 384406 571905 3.146406954198 4.641350954198 63 49767750.497678 49767750.497678 3135368281.3537 1.5604022634474e+17
140	40679232 201856 382347 573084 3.130010794198 4.650754634198 6308 12000 12000 75696000 908352000000
141	40881088 2646 384406 571905 3.146406954198 4.641350954198 63 49767750.497678 49767750.497678 3135368281.3537 1.5604022634474e+17
146	40883734 353248 382347 573085 3.130010794198 4.650755839798 12616 0 1 6308 6308
147	41236982 195548 382347 573084 3.130010794198 4.650754634198 6308 1507 1507 9506156 14325777092
148	41432530 182932 382358 573095 3.130108366998 4.650852206998 6308 59 59 372172 21958148
151	41615462 195548 382347 573084 3.130010794198 4.650754634198 6308 1500 1500 9462000 14193000000
152	41811010 182932 382358 573095 3.130108366998 4.650852206998 6308 52 52 328016 17056832
156	41993942 176624 382360 573097 3.130108366998 4.650852206998 6308 0 0 0 0
157	42170566 176624 382360 573097 3.130108366998 4.650852206998 6308 0 0 0 0
158	42347190 189240 382360 573097 3.130108366998 4.650852206998 6308 416 416 2624128 1091637248
159	42536430 2646 385021 572523 3.151326926998 4.646270926998 63 1725282.0172528 1725282.0172528 108692767.08693 1.8752567646053e+14
160	42539076 189240 382360 573097 3.130108366998 4.650852206998 6308 416 416 2624128 1091637248
161	42728316 2646 385021 572523 3.151326926998 4.646270926998 63 1725282.0172528 1725282.0172528 108692767.08693 1.8752567646053e+14
166	42730962 353248 382360 573098 3.130108366998 4.650861646998 12616 0 1 6308 6308
167	43084210 182932 382360 573097 3.130108366998 4.650852206998 6308 59 59 372172 21958148
168	43267142 195548 382345 573082 3.130010794198 4.650754634198 6308 1507 1507 9506156 14325777092
171	43462690 182932 382360 573097 3.130108366998 4.650852206998 6308 52 52 328016 17056832
172	43645622 195548 382345 573082 3.130010794198 4.650754634198 6308 1500 1500 9462000 14193000000
183	43841170 73966 382430 573076 3.130662959798 4.650683439798 2386 1448 1448 3454928 5002735744
186	43915136 121582 382369 573106 3.130180719798 4.650924559798 3922 1448 1448 5679056 8223273088
248	44036718 85896 382429 573075 3.130662959798 4.650683439798 2386 207381126 210834606 498931368276 1.0433284707979e+20
250	44122614 81701 382429 573075 3.130662959798 4.650683439798 2386 7381126 10834606 21731368276 2.0029976938586e+17
251	44204315 81700 382429 573075 3.130662959798 4.650683439798 2386 7379678 10833158 21727913348 2.0023684034607e+17
304	44286015 141192 382368 573105 3.130180719798 4.650924559798 3922 210833158 216510766 838021434964 1.7907222512924e+20
306	44427207 137270 382368 573105 3.130180719798 4.650924559798 3922 10833158 16510766 53621434964 7.4365114364424e+17
307	44564477 137270 382368 573105 3.130180719798 4.650924559798 3922 10831710 16509318 53615755908 7.4349586419185e+17
361	44701747 220495 382351 573091 3.130063214198 4.650807054198 6309 18400406 27534390 144901313982 3.3718832017926e+18
417	44922242 81622 382351 573061 3.130063214198 4.650565934198 2386 7453526 10907006 21904114676 2.0345897835159e+17
420	45003864 81652 382351 573061 3.130063214198 4.650565934198 2385 7360854 10812886 21672184950 1.9930272350682e+17
421	45085516 152543 382351 573061 3.130063214198 4.650565934198 4771 92672 95568 451027384 42642139037504
432	45238059 32 422903 422903 3.453405134198 3.453405134198 1 95568 95568 95568 9133242624
434	45238091 20864 382958 572574 3.134885614198 4.646708014198 652 0.041 0.042 27.058 1.12307
435	45258955 97529 382351 573061 3.130063214198 4.650565934198 2385 0.041305874048 0.041999478588 99.820957544802 4.1779113893538
436	45356484 96985 382351 573061 3.130063214198 4.650565934198 2385 4.175434e-06 0.000526826772 0.554099957574 0.00018366652077525
445	45453469 99884 382351 573061 3.130063214198 4.650565934198 2385 21.559989613013 22.130494278247 52113.091441176 1138712.411318
449	45553353 81650 382351 573061 3.130063214198 4.650565934198 2385 7358736 10810768 21667133520 1.9921093083031e+17
450	45635003 97490 382351 573061 3.130063214198 4.650565934198 2381 3.046876814198 4.566656174198 9069.5486622485 35003.369793471
451	45732493 97613 382351 573061 3.130063214198 4.650565934198 2384 3.088349454198 4.608611054198 9179.0051036788 35799.137756089
452	45830106 152543 382351 573061 3.130063214198 4.650565934198 4771 92672 95568 451027384 42642139037504
455	45982649 64359 383136 572789 3.136332334198 4.648395854198 1620 0.041454676019 0.042290298176 67.861291888477 2.8427093083156
456	46047008 218 392938 429112 3.214455214198 3.502834734198 6 0.04147264 0.042196 0.25148816 0.010541446385536
459	46047226 29 422903 422903 3.453405134198 3.453405134198 1 66 66 66 4356
461	46047255 60 422903 423057 3.453405134198 3.454610734198 2 65 6600 6665 43564225
473	46047315 137149 382339 573091 3.129982603522 4.650807054198 3924 10946102 16626606 54097653096 7.5636645264446e+17
476	46184464 137305 382384 573091 3.130304334198 4.650807054198 3923 10792614 16471670 53478893066 7.3958085168457e+17
477	46321769 258760 382339 573091 3.129982603522 4.650807054198 7847 154936 156384 1221464744 1.9013742795795e+14
490	46580529 34848 382384 572910 3.130304334198 4.649360334198 1089 0.041 0.042 45.194 1.875844
491	46615377 160418 382384 573091 3.130304334198 4.650807054198 3923 0.041369148735 0.041999852736 164.202716362 6.8729970449093
492	46775795 159585 382384 573091 3.130304334198 4.650807054198 3923 1.321011e-06 0.000529760553 0.906271703775 0.00029581944671581
501	46935380 164328 382384 573091 3.130304334198 4.650807054198 3923 35.745039593525 36.289999766452 140709.56843664 5046993.7447329
505	47099708 137305 382384 573091 3.130304334198 4.650807054198 3923 10790496 16469552 53470584152 7.3935433269178e+17
506	47237013 160655 382384 573091 3.130304334198 4.650807054198 3923 3.047117934198 4.566897294198 14930.067698602 57578.057713095
507	47397668 160656 382384 573091 3.130304334198 4.650807054198 3923 3.088590574198 4.608852174198 15094.38074815 58835.930942671
508	47558324 258760 382339 573091 3.129982603522 4.650807054198 7847 154936 156384 1221464744 1.9013742795795e+14
511	47817084 112976 382384 573091 3.130304334198 4.650807054198 2865 0.041468647658 0.041980861826 119.99447018842 5.0257569715763
512	47930060 481 392967 429080 3.214696334198 3.502593614198 13 0.04171376 0.04195488 0.54396672 0.022761710330726
525	47930541 97503 382351 573061 3.130063214198 4.650565934198 2385 0.000523440636 0.000537291539 1.264437236961 0.00067037066934497
527	48028044 160411 382384 573091 3.130304334198 4.650807054198 3923 0.000319206395 0.000324072938 1.266996268229 0.00040920049850384
5	48188455 37575 573133 616882 4.651130476486 4.999948814198 1448 0 0 0 0
6	48226030 37575 573133 616882 4.651130476486 4.999948814198 1448 0 0 0 0
7	48263605 43367 573133 616882 4.651130476486 4.999948814198 1448 12000 12000 17376000 208512000000
8	48306972 623 573970 616888 4.657799534198 5 16 49217848.494762 49986374.578638 795741707.43556 3.9575965385297e+16
9	48307595 43367 573133 616882 4.651130476486 4.999948814198 1448 12000 12000 17376000 208512000000
10	48350962 639 573970 616888 4.657799534198 5 16 49217848.494762 49986374.578638 795741707.43556 3.9575965385297e+16
15	48351601 78047 573133 616883 4.651130476486 4.999950019798 2896 0 1 1448 1448
16	48429648 43367 573133 616882 4.651130476486 4.999948814198 1448 1507 1507 2182136 3288478952
17	48473015 40544 573119 616878 4.651048174198 4.999948814198 1448 59 59 85432 5040488
20	48513559 43367 573133 616882 4.651130476486 4.999948814198 1448 1500 1500 2172000 3258000000
21	48556926 40544 573119 616878 4.651048174198 4.999948814198 1448 52 52 75296 3915392
45	48597470 39096 573108 616867 4.650924559798 4.999825199798 1448 0 0 0 0
46	48636566 39069 573140 616867 4.651165679798 4.999825199798 1447 0 0 0 0
47	48675635 41963 573140 616867 4.651165679798 4.999825199798 1447 416 416 601952 250412032
48	48717598 602 574983 616888 4.665873999798 5 15 1710691.8071814 1725282.0172528 25864640.048721 44598839005941
49	48718200 41963 573140 616867 4.651165679798 4.999825199798 1447 416 416 601952 250412032
50	48760163 602 574983 616888 4.665873999798 5 15 1710691.8071814 1725282.0172528 25864640.048721 44598839005941
55	48760765 78165 573109 616868 4.650924606998 4.999825246998 2895 0 1 1447 1447
56	48838930 40516 573140 616867 4.651165679798 4.999825199798 1447 59 59 85373 5037007
57	48879446 43410 573135 616862 4.651165679798 4.999825199798 1447 1507 1507 2180629 3286207903
60	48922856 40516 573140 616867 4.651165679798 4.999825199798 1447 52 52 75244 3912688
61	48963372 43410 573135 616862 4.651165679798 4.999825199798 1447 1500 1500 2170500 3255750000
77	49006782 43410 573138 616865 4.651165679798 4.999825199798 1447 1448 1448 2095256 3033930688
84	49050192 39069 573129 616860 4.651120526998 4.999780046998 1447 0 0 0 0
85	49089261 39069 573129 616860 4.651120526998 4.999780046998 1447 0 0 0 0
86	49128330 41963 573129 616860 4.651120526998 4.999780046998 1447 416 416 601952 250412032
87	49170293 601 575607 616888 4.670892366998 5 15 1701036.562549 1725282.0172528 25854984.804088 44565897933912
88	49170894 41963 573129 616860 4.651120526998 4.999780046998 1447 416 416 601952 250412032
89	49212857 601 575607 616888 4.670892366998 5 15 1701036.562549 1725282.0172528 25854984.804088 44565897933912
94	49213458 78138 573129 616861 4.651120526998 4.999780094198 2894 0 1 1447 1447
95	49291596 40516 573129 616860 4.651120526998 4.999780046998 1447 59 59 85373 5037007
96	49332112 43373 573110 616870 4.650976979798 4.999877619798 1448 1507 1507 2182136 3288478952
99	49375485 40516 573129 616860 4.651120526998 4.999780046998 1447 52 52 75244 3912688
100	49416001 44821 573110 616870 4.650976979798 4.999877619798 1448 1500 1500 2172000 3258000000
103	49460822 83917 573112 616873 4.650976979798 4.999878634198 2896 89 91 260768 23482088
104	49544739 98397 573112 616873 4.650976979798 4.999878634198 2896 1068000 1092000 3129216000 3.381420672e+15
105	49643136 57731 573113 616873 4.650977994198 4.999878634198 1448 0.021504228515 0.0217018144 31.365871247984 0.67943625953231
106	49700867 46269 573112 616872 4.650976979798 4.999877619798 1448 12000 12000 17376000 208512000000
107	49747136 658 573870 616888 4.657004979798 5 16 48645479.503229 49962029.36771 795166932.42258 3.9519592841259e+16
108	49747794 46336 573113 616873 4.650977994198 4.999878634198 1448 12000 12000 17376000 208512000000
109	49794130 617 574925 616888 4.665445194198 5 15 49481473.491786 49767750.497678 746229980.45927 3.7124022073305e+16
114	49794747 81088 573113 616873 4.650977994198 4.999878634198 2896 0 1 1448 1448
115	49875835 44888 573113 616873 4.650977994198 4.999878634198 1448 1507 1507 2182136 3288478952
116	49920723 41963 573127 616858 4.651120526998 4.999780046998 1447 59 59 85373 5037007
119	49962686 44888 573113 616873 4.650977994198 4.999878634198 1448 1500 1500 2172000 3258000000
120	50007574 41963 573127 616858 4.651120526998 4.999780046998 1447 52 52 75244 3912688
136	50049537 40544 573116 616876 4.650995754198 4.999896394198 1448 0 0 0 0
137	50090081 40544 573116 616876 4.650995754198 4.999896394198 1448 0 0 0 0
138	50130625 46336 573116 616876 4.650995754198 4.999896394198 1448 12000 12000 17376000 208512000000
139	50176961 617 574928 616888 4.665462954198 5 15 49523159.799831 49767750.497678 746271666.76732 3.7128149210947e+16
140	50177578 46336 573116 616876 4.650995754198 4.999896394198 1448 12000 12000 17376000 208512000000
141	50223914 617 574928 616888 4.665462954198 5 15 49523159.799831 49767750.497678 746271666.76732 3.7128149210947e+16
146	50224531 81088 573116 616877 4.650995754198 4.999897599798 2896 0 1 1448 1448
147	50305619 44888 573116 616876 4.650995754198 4.999896394198 1448 1507 1507 2182136 3288478952
148	50350507 41992 573122 616884 4.651093326998 4.999993966998 1448 59 59 85432 5040488
151	50392499 44888 573116 616876 4.650995754198 4.999896394198 1448 1500 1500 2172000 3258000000
152	50437387 41992 573122 616884 4.651093326998 4.999993966998 1448 52 52 75296 3915392
156	50479379 40544 573124 616886 4.651093326998 4.999993966998 1448 0 0 0 0
157	50519923 40544 573124 616886 4.651093326998 4.999993966998 1448 0 0 0 0
158	50560467 43440 573124 616886 4.651093326998 4.999993966998 1448 416 416 602368 250585088
159	50603907 617 575543 616888 4.670382926998 5 15 1724637.9616348 1725282.0172528 25878586.203174 44646748645495
160	50604524 43440 573124 616886 4.651093326998 4.999993966998 1448 416 416 602368 250585088
161	50647964 617 575543 616888 4.670382926998 5 15 1724637.9616348 1725282.0172528 25878586.203174 44646748645495
166	50648581 81060 573124 616886 4.651093326998 4.999993966998 2895 0 1 1448 1448
167	50729641 41992 573124 616886 4.651093326998 4.999993966998 1448 59 59 85432 5040488
168	50771633 44888 573114 616874 4.650995754198 4.999896394198 1448 1507 1507 2182136 3288478952
171	50816521 41992 573124 616886 4.651093326998 4.999993966998 1448 52 52 75296 3915392
172	50858513 44888 573114 616874 4.650995754198 4.999896394198 1448 1500 1500 2172000 3258000000
183	50903401 17143 573138 616865 4.651165679798 4.999825199798 553 1448 1448 800744 1159477312
186	50920544 27714 573167 616835 4.651406799798 4.999584079798 894 1448 1448 1294512 1874453376
248	50948258 19908 573137 616864 4.651165679798 4.999825199798 553 210836054 211635350 116813343206 2.4675178103206e+19
250	50968166 19355 573137 616864 4.651165679798 4.999825199798 553 10836054 11635350 6213343206 6.9840820806159e+16
251	50987521 19355 573137 616864 4.651165679798 4.999825199798 553 10834606 11633902 6212542462 6.9822828123711e+16
304	51006876 32184 573166 616834 4.651406799798 4.999584079798 894 216512214 217805278 194139918924 4.215930618614e+19
306	51039060 31290 573166 616834 4.651406799798 4.999584079798 894 16512214 17805278 15339918924 2.633386165395e+17
307	51070350 31290 573166 616834 4.651406799798 4.999584079798 894 16510766 17803830 15338624412 2.6329419400875e+17
361	51101640 50607 573131 616880 4.651130476486 4.999948814198 1448 27535838 29631094 41388858768 1.183567508019e+18
417	51152247 19187 573149 616847 4.651289294198 4.999707694198 549 10908454 11701958 6206558094 7.0195329359928e+16
420	51171434 19215 573149 616847 4.651289294198 4.999707694198 549 10814334 11607838 6154886214 6.9031870221659e+16
421	51190649 35108 573149 616847 4.651289294198 4.999707694198 1098 94120 95568 104138712 9877507546176
434	51225757 2688 574602 616847 4.662863054198 4.999707694198 84 0.041 0.042 3.486 0.14469
435	51228445 22457 573149 616847 4.651289294198 4.999707694198 549 0.041718512631 0.041999265895 23.01650088653 0.9649549650781
436	51250902 22289 573149 616847 4.651289294198 4.999707694198 549 5.195855e-06 0.000356307956 0.07856757098 1.4236274670383e-05
445	51273191 22994 573149 616847 4.651289294198 4.999707694198 549 21.844496111279 21.991503097538 12014.06312276 262910.70250501
449	51296185 19215 573149 616847 4.651289294198 4.999707694198 549 10812216 11605720 6153723432 6.9005800586429e+16
450	51315400 22485 573149 616847 4.651289294198 4.999707694198 549 4.567379534198 4.915797934198 2602.823198532 12345.625154269
451	51337885 22484 573149 616847 4.651289294198 4.999707694198 549 4.609334414198 4.957752814198 2625.8564521101 12564.993985667
452	51360369 35108 573149 616847 4.651289294198 4.999707694198 1098 94120 95568 104138712 9877507546176
455	51395477 14730 573846 616847 4.656835054198 4.999707694198 371 0.041949909067 0.041961414889 15.565284938097 0.6530406888523
473	51410207 31420 573131 616880 4.651130476486 4.999948814198 899 16628054 17928358 15533107194 2.6851117641796e+17
476	51441627 31465 573121 616880 4.651048174198 4.999948814198 899 16473118 17773422 15393819730 2.6371948206806e+17
477	51473092 59289 573121 616880 4.651048174198 4.999948814198 1798 154936 156384 279876680 43566546477248
490	51532381 5952 573360 616306 4.652977134198 4.995367534198 186 0.041 0.042 7.719 0.320385
491	51538333 36754 573121 616880 4.651048174198 4.999948814198 899 0.041596697563 0.041996938746 37.664689239632 1.5780130031302
492	51575087 36584 573121 616880 4.651048174198 4.999948814198 899 1.56838e-05 0.000471133252 0.167794621437 3.9128227179583e-05
501	51611671 37658 573121 616880 4.651048174198 4.999948814198 899 35.747519846855 36.091480474866 32214.399512053 1154361.6409832
505	51649329 31465 573121 616880 4.651048174198 4.999948814198 899 16471000 17771304 15391915648 2.6365427788053e+17
506	51680794 36820 573121 616880 4.651048174198 4.999948814198 899 4.567220685669 4.916039054198 4263.05526264 20224.530987156
507	51717614 36817 573121 616880 4.651048174198 4.999948814198 899 4.609174954301 4.957993934198 4300.7724415557 20583.82287208
508	51754431 59289 573121 616880 4.651048174198 4.999948814198 1798 154936 156384 279876680 43566546477248
511	51813720 25709 573121 616880 4.651048174198 4.999948814198 652 0.041941190168 0.041970254032 27.354323555698 1.1476365360159
525	51839429 22452 573149 616847 4.651289294198 4.999707694198 549 0.000526748897 0.000530293761 0.290612384945 0.00015383554056528
527	51861881 36751 573121 616880 4.651048174198 4.999948814198 899 0.000320962173 0.000324050453 0.290622602161 9.3950819899688e-05

