version 3
run mpTest-0-20251119-17:47:54-46996
attr configname mpTest
attr datetime 20251119-17:47:54
attr datetimef 20251119-174754
attr experiment mpTest
attr inifile mpTest.ini
attr iterationvars ""
attr iterationvarsd ""
attr iterationvarsf ""
attr measurement ""
attr network singledumbbell
attr processid 46996
attr repetition 0
attr replication #0
attr resultdir results
attr runnumber 0
attr seedset 0
config debug-on-errors true
config image-path ../../inet4.5/images
config extends General
config **.numberOfFlows 1
config *.client[0].app[0].connectAddress "\"server[0]\""
config *.client[0].app[0].tOpen 0.00846919251197291s
config *.client[0].app[0].tSend 0.00846919251197291s
config *.client[0].app[0].sendBytes 2GB
config **.ppp[*].queue.packetCapacity 432
config network singledumbbell
config sim-time-limit 10s
config record-eventlog false
config cmdenv-express-mode true
config cmdenv-redirect-output false
config cmdenv-output-file dctcpLog.txt
config **.client*.tcp.conn-8.cmdenv-log-level detail
config cmdenv-log-prefix "%t | %m |"
config cmdenv-event-banners false
config **.cmdenv-log-level off
config **.**.tcp.conn-*.cwnd:vector(removeRepeats).vector-recording true
config **.**.tcp.conn-*.rtt:vector(removeRepeats).vector-recording true
config **.**.tcp.conn-*.srtt:vector(removeRepeats).vector-recording true
config **.**.tcp.conn-*.throughput:vector(removeRepeats).vector-recording true
config **.**.tcp.conn-*.**.result-recording-modes vector(removeRepeats)
config **.**.queue.queueLength:vector(removeRepeats).vector-recording true
config **.**.queue.queueLength.result-recording-modes vector(removeRepeats)
config **.**.goodput:vector(removeRepeats).vector-recording true
config **.**.goodput.result-recording-modes vector(removeRepeats)
config **.**.bandwidth:vector(removeRepeats).vector-recording true
config **.**.bandwidth.result-recording-modes vector(removeRepeats)
config **.**.mbytesInFlight:vector(removeRepeats).vector-recording true
config **.**.mbytesInFlight.result-recording-modes vector(removeRepeats)
config **.scalar-recording false
config **.vector-recording false
config **.bin-recording false
config **.goodputInterval 1s
config **.throughputInterval 1s
config **.tcp.typename MpTcp
config **.tcp.tcpAlgorithmClass "\"MpTcpMetaCubic\""
config **.tcp.advertisedWindow 200000000
config **.tcp.windowScalingSupport true
config **.tcp.windowScalingFactor -1
config **.tcp.increasedIWEnabled true
config **.tcp.delayedAcksEnabled false
config **.tcp.timestampSupport true
config **.tcp.ecnWillingness false
config **.tcp.nagleEnabled true
config **.tcp.stopOperationTimeout 4000s
config **.tcp.mss 1448
config **.tcp.sackSupport true
config **.client[*].numApps 1
config **.client[*].app[*].typename MpTcpSessionApp
config *.client[*].app[0].tClose -1s
config *.client[*].app[0].sendBytes 2GB
config *.client[*].app[0].dataTransferMode "\"bytecount\""
config *.client[*].app[0].statistic-recording true
config **.server[*].numApps 1
config **.server[*].app[*].typename MpTcpSinkApp
config **.server[*].app[*].serverThreadModuleType "\"tcpgoodputapplications.applications.tcpapp.TcpGoodputSinkAppThread\""
config **.**.queue.typename DropTailQueue
config **.additiveIncreasePercent 0.05
config **.eta 0.95
config **.alpha 0.01
config **.fixedAvgRTTVal 0
config **.tcp.initialSsthresh 5792000

vector 0 singledumbbell.client[0].lo[0].lo rcvdPkFromHl:vector(packetBytes) ETV
attr interpolationmode none
attr recordingmode vector(packetBytes)
attr source packetReceivedFromUpper
attr title "packets received from higher layer, packetBytes"
vector 1 singledumbbell.client[0].lo[0].lo passedUpPk:vector(packetBytes) ETV
attr interpolationmode none
attr recordingmode vector(packetBytes)
attr source packetSentToUpper
attr title "packets passed to higher layer, packetBytes"
vector 2 singledumbbell.client[0].lo[0] packetDropInterfaceDown:vector(packetBytes) ETV
attr interpolationmode none
attr recordingmode vector(packetBytes)
attr source packetDropReasonIsInterfaceDown(packetDropped)
attr title "packet drops: interface down, packetBytes"
vector 3 singledumbbell.client[0].lo[0] packetDropNoCarrier:vector(packetBytes) ETV
attr interpolationmode none
attr recordingmode vector(packetBytes)
attr source packetDropReasonIsNoCarrier(packetDropped)
attr title "packet drops: no carrier, packetBytes"
vector 4 singledumbbell.client[0].ppp[0].queue queueLength:vector(removeRepeats) ETV
attr autoWarmupFilter false
attr interpolationmode sample-hold
attr recordingmode vector(removeRepeats)
attr source "warmup(atomic(constant0(packetPushEnded) + count(packetPushStarted) - count(packetPulled) - count(packetRemoved) - count(packetDropped)))"
attr title "queue length, removeRepeats"
attr unit pk
vector 5 singledumbbell.client[0].ppp[0].queue queueBitLength:vector ETV
attr autoWarmupFilter false
attr interpolationmode sample-hold
attr recordingmode vector
attr source "warmup(atomic(constant0(packetPushEnded) + sum(packetLength(packetPushStarted)) - sum(packetLength(packetPulled)) - sum(packetLength(packetRemoved)) - sum(packetLength(packetDropped))))"
attr title "queue bit length"
attr unit b
vector 6 singledumbbell.client[0].ppp[0].queue queueingTime:vector ETV
attr interpolationmode none
attr recordingmode vector
attr source queueingTime(packetPulled)
attr title "queueing times"
attr unit s
vector 7 singledumbbell.client[0].ppp[0].queue incomingPacketLengths:vector ETV
attr interpolationmode none
attr recordingmode vector
attr source packetLength(packetPushStarted)
attr title "incoming packet lengths"
attr unit b
vector 8 singledumbbell.client[0].ppp[0].queue incomingDataRate:vector ETV
attr interpolationmode linear
attr recordingmode vector
attr source throughput(packetPushStarted)
attr title "incoming datarate"
attr unit bps
vector 9 singledumbbell.client[0].ppp[0].queue outgoingPacketLengths:vector ETV
attr interpolationmode none
attr recordingmode vector
attr source packetLength(packetPulled)
attr title "outgoing packet lengths"
attr unit b
vector 10 singledumbbell.client[0].ppp[0].queue outgoingDataRate:vector ETV
attr interpolationmode linear
attr recordingmode vector
attr source throughput(packetPulled)
attr title "outgoing datarate"
attr unit bps
vector 11 singledumbbell.client[0].ppp[0].queue droppedPacketLengthsQueueOverflow:vector ETV
attr interpolationmode none
attr recordingmode vector
attr source packetLength(packetDropReasonIsQueueOverflow(packetDropped))
attr title "dropped packet lengths: queue overflow"
attr unit b
vector 12 singledumbbell.client[0].ppp[0].queue flowQueueingTime:vector ETV
attr interpolationmode none
attr recordingmode vector
attr source queueingTime(demuxFlow(packetPulled))
attr title "flow queueing times"
attr unit s
vector 13 singledumbbell.client[0].ppp[0].queue flowIncomingDataRate:vector ETV
attr interpolationmode linear
attr recordingmode vector
attr source throughput(flowPacketLength(demuxFlow(packetPushStarted)))
attr title "flow specific incoming data rate"
attr unit bps
vector 14 singledumbbell.client[0].ppp[0].queue flowOutgoingDataRate:vector ETV
attr interpolationmode linear
attr recordingmode vector
attr source throughput(flowPacketLength(demuxFlow(packetPulled)))
attr title "flow specific outgoing data rate"
attr unit bps
vector 15 singledumbbell.client[0].ppp[0].ppp transmissionState:vector ETV
attr interpolationmode sample-hold
attr recordingmode vector
attr source transmissionStateChanged
attr title "tx state"
vector 16 singledumbbell.client[0].ppp[0].ppp txPk:vector(packetBytes) ETV
attr interpolationmode none
attr recordingmode vector(packetBytes)
attr source packetSentToLower
attr title "packets transmitted, packetBytes"
vector 17 singledumbbell.client[0].ppp[0].ppp rxPkOk:vector(packetBytes) ETV
attr interpolationmode none
attr recordingmode vector(packetBytes)
attr source rxPkOk
attr title "packets received OK, packetBytes"
vector 18 singledumbbell.client[0].ppp[0].ppp packetDropIncorrectlyReceived:vector(packetBytes) ETV
attr interpolationmode none
attr recordingmode vector(packetBytes)
attr source packetDropReasonIsIncorrectlyReceived(packetDropped)
attr title "packet drop: incorrectly received, packetBytes"
vector 19 singledumbbell.client[0].ppp[0].ppp packetDropInterfaceDown:vector(packetBytes) ETV
attr interpolationmode none
attr recordingmode vector(packetBytes)
attr source packetDropReasonIsInterfaceDown(packetDropped)
attr title "packet drop: interface down, packetBytes"
vector 20 singledumbbell.client[0].ppp[0].ppp rcvdPkFromHl:vector(packetBytes) ETV
attr interpolationmode none
attr recordingmode vector(packetBytes)
attr source packetReceivedFromUpper
attr title "packets received from higher layer, packetBytes"
vector 21 singledumbbell.client[0].ppp[0].ppp passedUpPk:vector(packetBytes) ETV
attr interpolationmode none
attr recordingmode vector(packetBytes)
attr source packetSentToUpper
attr title "packets passed to higher layer, packetBytes"
vector 22 singledumbbell.client[0].ppp[0] packetDropInterfaceDown:vector(packetBytes) ETV
attr interpolationmode none
attr recordingmode vector(packetBytes)
attr source packetDropReasonIsInterfaceDown(packetDropped)
attr title "packet drops: interface down, packetBytes"
vector 23 singledumbbell.client[0].ppp[0] packetDropNoCarrier:vector(packetBytes) ETV
attr interpolationmode none
attr recordingmode vector(packetBytes)
attr source packetDropReasonIsNoCarrier(packetDropped)
attr title "packet drops: no carrier, packetBytes"
vector 24 singledumbbell.client[0].ipv4.ip packetDropAddressResolutionFailed:vector(packetBytes) ETV
attr interpolationmode none
attr recordingmode vector(packetBytes)
attr source packetDropReasonIsAddressResolutionFailed(packetDropped)
attr title "packet drop: address resolution failed, packetBytes"
vector 25 singledumbbell.client[0].ipv4.ip packetDropHopLimitReached:vector(packetBytes) ETV
attr interpolationmode none
attr recordingmode vector(packetBytes)
attr source packetDropReasonIsHopLimitReached(packetDropped)
attr title "packet drop: hop limit reached, packetBytes"
vector 26 singledumbbell.client[0].ipv4.ip packetDropForwardingDisabled:vector(packetBytes) ETV
attr interpolationmode none
attr recordingmode vector(packetBytes)
attr source packetDropReasonIsForwardingDisabled(packetDropped)
attr title "packet drop: forwarding disabled, packetBytes"
vector 27 singledumbbell.client[0].ipv4.ip packetDropNoInterfaceFound:vector(packetBytes) ETV
attr interpolationmode none
attr recordingmode vector(packetBytes)
attr source packetDropReasonIsNoInterfaceFound(packetDropped)
attr title "packet drop: no interface found, packetBytes"
vector 28 singledumbbell.client[0].ipv4.ip packetDropNoRouteFound:vector(packetBytes) ETV
attr interpolationmode none
attr recordingmode vector(packetBytes)
attr source packetDropReasonIsNoRouteFound(packetDropped)
attr title "packet drop: no route found, packetBytes"
vector 29 singledumbbell.client[0].ipv4.ip packetDropUndefined:vector(packetBytes) ETV
attr interpolationmode none
attr recordingmode vector(packetBytes)
attr source packetDropReasonIsUndefined(packetDropped)
attr title "packet drop: undefined, packetBytes"
vector 30 singledumbbell.client[0].ipv4.arp arpRequestSent:vector(packetBytes) ETV
attr recordingmode vector(packetBytes)
attr source arpRequestSent
attr title "ARP request sent, packetBytes"
vector 31 singledumbbell.client[0].ipv4.arp arpReplySent:vector(packetBytes) ETV
attr recordingmode vector(packetBytes)
attr source arpReplySent
attr title "ARP replies sent, packetBytes"
vector 32 singledumbbell.client[0].udp packetSent:vector(packetBytes) ETV
attr interpolationmode none
attr recordingmode vector(packetBytes)
attr source packetSent
attr title "packets sent, packetBytes"
vector 33 singledumbbell.client[0].udp packetReceived:vector(packetBytes) ETV
attr interpolationmode none
attr recordingmode vector(packetBytes)
attr source packetReceived
attr title "packets received, packetBytes"
vector 34 singledumbbell.client[0].udp passedUpPk:vector(count) ETV
attr interpolationmode none
attr recordingmode vector(count)
attr source packetSentToUpper
attr title "packets passed up, count"
vector 35 singledumbbell.client[0].udp droppedPkWrongPort:vector(count) ETV
attr interpolationmode none
attr recordingmode vector(count)
attr source packetDropReasonIsNoPortFound(packetDropped)
attr title "packets dropped (wrong port), count"
vector 36 singledumbbell.client[0].udp droppedPkBadChecksum:vector(count) ETV
attr interpolationmode none
attr recordingmode vector(count)
attr source packetDropReasonIsIncorrectlyReceived(packetDropped)
attr title "packets dropped (checksum error), count"
vector 37 singledumbbell.client[0].app[0] packetReceived:vector(packetBytes) ETV
attr interpolationmode none
attr recordingmode vector(packetBytes)
attr source packetReceived
attr title "packets received, packetBytes"
vector 38 singledumbbell.client[0].app[0] packetSent:vector(packetBytes) ETV
attr interpolationmode none
attr recordingmode vector(packetBytes)
attr source packetSent
attr title "packets sent, packetBytes"
vector 39 singledumbbell.client[0].app[0] endToEndDelay:vector ETV
attr interpolationmode none
attr recordingmode vector
attr source dataAge(packetReceived)
attr title "end-to-end delay"
attr unit s
vector 40 singledumbbell.server[0].lo[0].lo rcvdPkFromHl:vector(packetBytes) ETV
attr interpolationmode none
attr recordingmode vector(packetBytes)
attr source packetReceivedFromUpper
attr title "packets received from higher layer, packetBytes"
vector 41 singledumbbell.server[0].lo[0].lo passedUpPk:vector(packetBytes) ETV
attr interpolationmode none
attr recordingmode vector(packetBytes)
attr source packetSentToUpper
attr title "packets passed to higher layer, packetBytes"
vector 42 singledumbbell.server[0].lo[0] packetDropInterfaceDown:vector(packetBytes) ETV
attr interpolationmode none
attr recordingmode vector(packetBytes)
attr source packetDropReasonIsInterfaceDown(packetDropped)
attr title "packet drops: interface down, packetBytes"
vector 43 singledumbbell.server[0].lo[0] packetDropNoCarrier:vector(packetBytes) ETV
attr interpolationmode none
attr recordingmode vector(packetBytes)
attr source packetDropReasonIsNoCarrier(packetDropped)
attr title "packet drops: no carrier, packetBytes"
vector 44 singledumbbell.server[0].ppp[0].queue queueLength:vector(removeRepeats) ETV
attr autoWarmupFilter false
attr interpolationmode sample-hold
attr recordingmode vector(removeRepeats)
attr source "warmup(atomic(constant0(packetPushEnded) + count(packetPushStarted) - count(packetPulled) - count(packetRemoved) - count(packetDropped)))"
attr title "queue length, removeRepeats"
attr unit pk
vector 45 singledumbbell.server[0].ppp[0].queue queueBitLength:vector ETV
attr autoWarmupFilter false
attr interpolationmode sample-hold
attr recordingmode vector
attr source "warmup(atomic(constant0(packetPushEnded) + sum(packetLength(packetPushStarted)) - sum(packetLength(packetPulled)) - sum(packetLength(packetRemoved)) - sum(packetLength(packetDropped))))"
attr title "queue bit length"
attr unit b
vector 46 singledumbbell.server[0].ppp[0].queue queueingTime:vector ETV
attr interpolationmode none
attr recordingmode vector
attr source queueingTime(packetPulled)
attr title "queueing times"
attr unit s
vector 47 singledumbbell.server[0].ppp[0].queue incomingPacketLengths:vector ETV
attr interpolationmode none
attr recordingmode vector
attr source packetLength(packetPushStarted)
attr title "incoming packet lengths"
attr unit b
vector 48 singledumbbell.server[0].ppp[0].queue incomingDataRate:vector ETV
attr interpolationmode linear
attr recordingmode vector
attr source throughput(packetPushStarted)
attr title "incoming datarate"
attr unit bps
vector 49 singledumbbell.server[0].ppp[0].queue outgoingPacketLengths:vector ETV
attr interpolationmode none
attr recordingmode vector
attr source packetLength(packetPulled)
attr title "outgoing packet lengths"
attr unit b
vector 50 singledumbbell.server[0].ppp[0].queue outgoingDataRate:vector ETV
attr interpolationmode linear
attr recordingmode vector
attr source throughput(packetPulled)
attr title "outgoing datarate"
attr unit bps
vector 51 singledumbbell.server[0].ppp[0].queue droppedPacketLengthsQueueOverflow:vector ETV
attr interpolationmode none
attr recordingmode vector
attr source packetLength(packetDropReasonIsQueueOverflow(packetDropped))
attr title "dropped packet lengths: queue overflow"
attr unit b
vector 52 singledumbbell.server[0].ppp[0].queue flowQueueingTime:vector ETV
attr interpolationmode none
attr recordingmode vector
attr source queueingTime(demuxFlow(packetPulled))
attr title "flow queueing times"
attr unit s
vector 53 singledumbbell.server[0].ppp[0].queue flowIncomingDataRate:vector ETV
attr interpolationmode linear
attr recordingmode vector
attr source throughput(flowPacketLength(demuxFlow(packetPushStarted)))
attr title "flow specific incoming data rate"
attr unit bps
vector 54 singledumbbell.server[0].ppp[0].queue flowOutgoingDataRate:vector ETV
attr interpolationmode linear
attr recordingmode vector
attr source throughput(flowPacketLength(demuxFlow(packetPulled)))
attr title "flow specific outgoing data rate"
attr unit bps
vector 55 singledumbbell.server[0].ppp[0].ppp transmissionState:vector ETV
attr interpolationmode sample-hold
attr recordingmode vector
attr source transmissionStateChanged
attr title "tx state"
vector 56 singledumbbell.server[0].ppp[0].ppp txPk:vector(packetBytes) ETV
attr interpolationmode none
attr recordingmode vector(packetBytes)
attr source packetSentToLower
attr title "packets transmitted, packetBytes"
vector 57 singledumbbell.server[0].ppp[0].ppp rxPkOk:vector(packetBytes) ETV
attr interpolationmode none
attr recordingmode vector(packetBytes)
attr source rxPkOk
attr title "packets received OK, packetBytes"
vector 58 singledumbbell.server[0].ppp[0].ppp packetDropIncorrectlyReceived:vector(packetBytes) ETV
attr interpolationmode none
attr recordingmode vector(packetBytes)
attr source packetDropReasonIsIncorrectlyReceived(packetDropped)
attr title "packet drop: incorrectly received, packetBytes"
vector 59 singledumbbell.server[0].ppp[0].ppp packetDropInterfaceDown:vector(packetBytes) ETV
attr interpolationmode none
attr recordingmode vector(packetBytes)
attr source packetDropReasonIsInterfaceDown(packetDropped)
attr title "packet drop: interface down, packetBytes"
vector 60 singledumbbell.server[0].ppp[0].ppp rcvdPkFromHl:vector(packetBytes) ETV
attr interpolationmode none
attr recordingmode vector(packetBytes)
attr source packetReceivedFromUpper
attr title "packets received from higher layer, packetBytes"
vector 61 singledumbbell.server[0].ppp[0].ppp passedUpPk:vector(packetBytes) ETV
attr interpolationmode none
attr recordingmode vector(packetBytes)
attr source packetSentToUpper
attr title "packets passed to higher layer, packetBytes"
vector 62 singledumbbell.server[0].ppp[0] packetDropInterfaceDown:vector(packetBytes) ETV
attr interpolationmode none
attr recordingmode vector(packetBytes)
attr source packetDropReasonIsInterfaceDown(packetDropped)
attr title "packet drops: interface down, packetBytes"
vector 63 singledumbbell.server[0].ppp[0] packetDropNoCarrier:vector(packetBytes) ETV
attr interpolationmode none
attr recordingmode vector(packetBytes)
attr source packetDropReasonIsNoCarrier(packetDropped)
attr title "packet drops: no carrier, packetBytes"
vector 64 singledumbbell.server[0].ipv4.ip packetDropAddressResolutionFailed:vector(packetBytes) ETV
attr interpolationmode none
attr recordingmode vector(packetBytes)
attr source packetDropReasonIsAddressResolutionFailed(packetDropped)
attr title "packet drop: address resolution failed, packetBytes"
vector 65 singledumbbell.server[0].ipv4.ip packetDropHopLimitReached:vector(packetBytes) ETV
attr interpolationmode none
attr recordingmode vector(packetBytes)
attr source packetDropReasonIsHopLimitReached(packetDropped)
attr title "packet drop: hop limit reached, packetBytes"
vector 66 singledumbbell.server[0].ipv4.ip packetDropForwardingDisabled:vector(packetBytes) ETV
attr interpolationmode none
attr recordingmode vector(packetBytes)
attr source packetDropReasonIsForwardingDisabled(packetDropped)
attr title "packet drop: forwarding disabled, packetBytes"
vector 67 singledumbbell.server[0].ipv4.ip packetDropNoInterfaceFound:vector(packetBytes) ETV
attr interpolationmode none
attr recordingmode vector(packetBytes)
attr source packetDropReasonIsNoInterfaceFound(packetDropped)
attr title "packet drop: no interface found, packetBytes"
vector 68 singledumbbell.server[0].ipv4.ip packetDropNoRouteFound:vector(packetBytes) ETV
attr interpolationmode none
attr recordingmode vector(packetBytes)
attr source packetDropReasonIsNoRouteFound(packetDropped)
attr title "packet drop: no route found, packetBytes"
vector 69 singledumbbell.server[0].ipv4.ip packetDropUndefined:vector(packetBytes) ETV
attr interpolationmode none
attr recordingmode vector(packetBytes)
attr source packetDropReasonIsUndefined(packetDropped)
attr title "packet drop: undefined, packetBytes"
vector 70 singledumbbell.server[0].ipv4.arp arpRequestSent:vector(packetBytes) ETV
attr recordingmode vector(packetBytes)
attr source arpRequestSent
attr title "ARP request sent, packetBytes"
vector 71 singledumbbell.server[0].ipv4.arp arpReplySent:vector(packetBytes) ETV
attr recordingmode vector(packetBytes)
attr source arpReplySent
attr title "ARP replies sent, packetBytes"
vector 72 singledumbbell.server[0].udp packetSent:vector(packetBytes) ETV
attr interpolationmode none
attr recordingmode vector(packetBytes)
attr source packetSent
attr title "packets sent, packetBytes"
vector 73 singledumbbell.server[0].udp packetReceived:vector(packetBytes) ETV
attr interpolationmode none
attr recordingmode vector(packetBytes)
attr source packetReceived
attr title "packets received, packetBytes"
vector 74 singledumbbell.server[0].udp passedUpPk:vector(count) ETV
attr interpolationmode none
attr recordingmode vector(count)
attr source packetSentToUpper
attr title "packets passed up, count"
vector 75 singledumbbell.server[0].udp droppedPkWrongPort:vector(count) ETV
attr interpolationmode none
attr recordingmode vector(count)
attr source packetDropReasonIsNoPortFound(packetDropped)
attr title "packets dropped (wrong port), count"
vector 76 singledumbbell.server[0].udp droppedPkBadChecksum:vector(count) ETV
attr interpolationmode none
attr recordingmode vector(count)
attr source packetDropReasonIsIncorrectlyReceived(packetDropped)
attr title "packets dropped (checksum error), count"
vector 77 singledumbbell.server[0].app[0] packetReceived:vector(packetBytes) ETV
attr checkSignals false
attr interpolationmode none
attr recordingmode vector(packetBytes)
attr source packetReceived
attr title "packets received, packetBytes"
vector 78 singledumbbell.server[0].app[0] endToEndDelay:vector ETV
attr checkSignals false
attr interpolationmode none
attr recordingmode vector
attr source dataAge(packetReceived)
attr title "end-to-end delay"
attr unit s
vector 79 singledumbbell.router1.lo[0].lo rcvdPkFromHl:vector(packetBytes) ETV
attr interpolationmode none
attr recordingmode vector(packetBytes)
attr source packetReceivedFromUpper
attr title "packets received from higher layer, packetBytes"
vector 80 singledumbbell.router1.lo[0].lo passedUpPk:vector(packetBytes) ETV
attr interpolationmode none
attr recordingmode vector(packetBytes)
attr source packetSentToUpper
attr title "packets passed to higher layer, packetBytes"
vector 81 singledumbbell.router1.lo[0] packetDropInterfaceDown:vector(packetBytes) ETV
attr interpolationmode none
attr recordingmode vector(packetBytes)
attr source packetDropReasonIsInterfaceDown(packetDropped)
attr title "packet drops: interface down, packetBytes"
vector 82 singledumbbell.router1.lo[0] packetDropNoCarrier:vector(packetBytes) ETV
attr interpolationmode none
attr recordingmode vector(packetBytes)
attr source packetDropReasonIsNoCarrier(packetDropped)
attr title "packet drops: no carrier, packetBytes"
vector 83 singledumbbell.router1.ppp[0].queue queueLength:vector(removeRepeats) ETV
attr autoWarmupFilter false
attr interpolationmode sample-hold
attr recordingmode vector(removeRepeats)
attr source "warmup(atomic(constant0(packetPushEnded) + count(packetPushStarted) - count(packetPulled) - count(packetRemoved) - count(packetDropped)))"
attr title "queue length, removeRepeats"
attr unit pk
vector 84 singledumbbell.router1.ppp[0].queue queueBitLength:vector ETV
attr autoWarmupFilter false
attr interpolationmode sample-hold
attr recordingmode vector
attr source "warmup(atomic(constant0(packetPushEnded) + sum(packetLength(packetPushStarted)) - sum(packetLength(packetPulled)) - sum(packetLength(packetRemoved)) - sum(packetLength(packetDropped))))"
attr title "queue bit length"
attr unit b
vector 85 singledumbbell.router1.ppp[0].queue queueingTime:vector ETV
attr interpolationmode none
attr recordingmode vector
attr source queueingTime(packetPulled)
attr title "queueing times"
attr unit s
vector 86 singledumbbell.router1.ppp[0].queue incomingPacketLengths:vector ETV
attr interpolationmode none
attr recordingmode vector
attr source packetLength(packetPushStarted)
attr title "incoming packet lengths"
attr unit b
vector 87 singledumbbell.router1.ppp[0].queue incomingDataRate:vector ETV
attr interpolationmode linear
attr recordingmode vector
attr source throughput(packetPushStarted)
attr title "incoming datarate"
attr unit bps
vector 88 singledumbbell.router1.ppp[0].queue outgoingPacketLengths:vector ETV
attr interpolationmode none
attr recordingmode vector
attr source packetLength(packetPulled)
attr title "outgoing packet lengths"
attr unit b
vector 89 singledumbbell.router1.ppp[0].queue outgoingDataRate:vector ETV
attr interpolationmode linear
attr recordingmode vector
attr source throughput(packetPulled)
attr title "outgoing datarate"
attr unit bps
vector 90 singledumbbell.router1.ppp[0].queue droppedPacketLengthsQueueOverflow:vector ETV
attr interpolationmode none
attr recordingmode vector
attr source packetLength(packetDropReasonIsQueueOverflow(packetDropped))
attr title "dropped packet lengths: queue overflow"
attr unit b
vector 91 singledumbbell.router1.ppp[0].queue flowQueueingTime:vector ETV
attr interpolationmode none
attr recordingmode vector
attr source queueingTime(demuxFlow(packetPulled))
attr title "flow queueing times"
attr unit s
vector 92 singledumbbell.router1.ppp[0].queue flowIncomingDataRate:vector ETV
attr interpolationmode linear
attr recordingmode vector
attr source throughput(flowPacketLength(demuxFlow(packetPushStarted)))
attr title "flow specific incoming data rate"
attr unit bps
vector 93 singledumbbell.router1.ppp[0].queue flowOutgoingDataRate:vector ETV
attr interpolationmode linear
attr recordingmode vector
attr source throughput(flowPacketLength(demuxFlow(packetPulled)))
attr title "flow specific outgoing data rate"
attr unit bps
vector 94 singledumbbell.router1.ppp[0].ppp transmissionState:vector ETV
attr interpolationmode sample-hold
attr recordingmode vector
attr source transmissionStateChanged
attr title "tx state"
vector 95 singledumbbell.router1.ppp[0].ppp txPk:vector(packetBytes) ETV
attr interpolationmode none
attr recordingmode vector(packetBytes)
attr source packetSentToLower
attr title "packets transmitted, packetBytes"
vector 96 singledumbbell.router1.ppp[0].ppp rxPkOk:vector(packetBytes) ETV
attr interpolationmode none
attr recordingmode vector(packetBytes)
attr source rxPkOk
attr title "packets received OK, packetBytes"
vector 97 singledumbbell.router1.ppp[0].ppp packetDropIncorrectlyReceived:vector(packetBytes) ETV
attr interpolationmode none
attr recordingmode vector(packetBytes)
attr source packetDropReasonIsIncorrectlyReceived(packetDropped)
attr title "packet drop: incorrectly received, packetBytes"
vector 98 singledumbbell.router1.ppp[0].ppp packetDropInterfaceDown:vector(packetBytes) ETV
attr interpolationmode none
attr recordingmode vector(packetBytes)
attr source packetDropReasonIsInterfaceDown(packetDropped)
attr title "packet drop: interface down, packetBytes"
vector 99 singledumbbell.router1.ppp[0].ppp rcvdPkFromHl:vector(packetBytes) ETV
attr interpolationmode none
attr recordingmode vector(packetBytes)
attr source packetReceivedFromUpper
attr title "packets received from higher layer, packetBytes"
vector 100 singledumbbell.router1.ppp[0].ppp passedUpPk:vector(packetBytes) ETV
attr interpolationmode none
attr recordingmode vector(packetBytes)
attr source packetSentToUpper
attr title "packets passed to higher layer, packetBytes"
vector 101 singledumbbell.router1.ppp[0] packetDropInterfaceDown:vector(packetBytes) ETV
attr interpolationmode none
attr recordingmode vector(packetBytes)
attr source packetDropReasonIsInterfaceDown(packetDropped)
attr title "packet drops: interface down, packetBytes"
vector 102 singledumbbell.router1.ppp[0] packetDropNoCarrier:vector(packetBytes) ETV
attr interpolationmode none
attr recordingmode vector(packetBytes)
attr source packetDropReasonIsNoCarrier(packetDropped)
attr title "packet drops: no carrier, packetBytes"
vector 103 singledumbbell.router1.ppp[1].queue queueLength:vector(removeRepeats) ETV
attr autoWarmupFilter false
attr interpolationmode sample-hold
attr recordingmode vector(removeRepeats)
attr source "warmup(atomic(constant0(packetPushEnded) + count(packetPushStarted) - count(packetPulled) - count(packetRemoved) - count(packetDropped)))"
attr title "queue length, removeRepeats"
attr unit pk
vector 104 singledumbbell.router1.ppp[1].queue queueBitLength:vector ETV
attr autoWarmupFilter false
attr interpolationmode sample-hold
attr recordingmode vector
attr source "warmup(atomic(constant0(packetPushEnded) + sum(packetLength(packetPushStarted)) - sum(packetLength(packetPulled)) - sum(packetLength(packetRemoved)) - sum(packetLength(packetDropped))))"
attr title "queue bit length"
attr unit b
vector 105 singledumbbell.router1.ppp[1].queue queueingTime:vector ETV
attr interpolationmode none
attr recordingmode vector
attr source queueingTime(packetPulled)
attr title "queueing times"
attr unit s
vector 106 singledumbbell.router1.ppp[1].queue incomingPacketLengths:vector ETV
attr interpolationmode none
attr recordingmode vector
attr source packetLength(packetPushStarted)
attr title "incoming packet lengths"
attr unit b
vector 107 singledumbbell.router1.ppp[1].queue incomingDataRate:vector ETV
attr interpolationmode linear
attr recordingmode vector
attr source throughput(packetPushStarted)
attr title "incoming datarate"
attr unit bps
vector 108 singledumbbell.router1.ppp[1].queue outgoingPacketLengths:vector ETV
attr interpolationmode none
attr recordingmode vector
attr source packetLength(packetPulled)
attr title "outgoing packet lengths"
attr unit b
vector 109 singledumbbell.router1.ppp[1].queue outgoingDataRate:vector ETV
attr interpolationmode linear
attr recordingmode vector
attr source throughput(packetPulled)
attr title "outgoing datarate"
attr unit bps
vector 110 singledumbbell.router1.ppp[1].queue droppedPacketLengthsQueueOverflow:vector ETV
attr interpolationmode none
attr recordingmode vector
attr source packetLength(packetDropReasonIsQueueOverflow(packetDropped))
attr title "dropped packet lengths: queue overflow"
attr unit b
vector 111 singledumbbell.router1.ppp[1].queue flowQueueingTime:vector ETV
attr interpolationmode none
attr recordingmode vector
attr source queueingTime(demuxFlow(packetPulled))
attr title "flow queueing times"
attr unit s
vector 112 singledumbbell.router1.ppp[1].queue flowIncomingDataRate:vector ETV
attr interpolationmode linear
attr recordingmode vector
attr source throughput(flowPacketLength(demuxFlow(packetPushStarted)))
attr title "flow specific incoming data rate"
attr unit bps
vector 113 singledumbbell.router1.ppp[1].queue flowOutgoingDataRate:vector ETV
attr interpolationmode linear
attr recordingmode vector
attr source throughput(flowPacketLength(demuxFlow(packetPulled)))
attr title "flow specific outgoing data rate"
attr unit bps
vector 114 singledumbbell.router1.ppp[1].ppp transmissionState:vector ETV
attr interpolationmode sample-hold
attr recordingmode vector
attr source transmissionStateChanged
attr title "tx state"
vector 115 singledumbbell.router1.ppp[1].ppp txPk:vector(packetBytes) ETV
attr interpolationmode none
attr recordingmode vector(packetBytes)
attr source packetSentToLower
attr title "packets transmitted, packetBytes"
vector 116 singledumbbell.router1.ppp[1].ppp rxPkOk:vector(packetBytes) ETV
attr interpolationmode none
attr recordingmode vector(packetBytes)
attr source rxPkOk
attr title "packets received OK, packetBytes"
vector 117 singledumbbell.router1.ppp[1].ppp packetDropIncorrectlyReceived:vector(packetBytes) ETV
attr interpolationmode none
attr recordingmode vector(packetBytes)
attr source packetDropReasonIsIncorrectlyReceived(packetDropped)
attr title "packet drop: incorrectly received, packetBytes"
vector 118 singledumbbell.router1.ppp[1].ppp packetDropInterfaceDown:vector(packetBytes) ETV
attr interpolationmode none
attr recordingmode vector(packetBytes)
attr source packetDropReasonIsInterfaceDown(packetDropped)
attr title "packet drop: interface down, packetBytes"
vector 119 singledumbbell.router1.ppp[1].ppp rcvdPkFromHl:vector(packetBytes) ETV
attr interpolationmode none
attr recordingmode vector(packetBytes)
attr source packetReceivedFromUpper
attr title "packets received from higher layer, packetBytes"
vector 120 singledumbbell.router1.ppp[1].ppp passedUpPk:vector(packetBytes) ETV
attr interpolationmode none
attr recordingmode vector(packetBytes)
attr source packetSentToUpper
attr title "packets passed to higher layer, packetBytes"
vector 121 singledumbbell.router1.ppp[1] packetDropInterfaceDown:vector(packetBytes) ETV
attr interpolationmode none
attr recordingmode vector(packetBytes)
attr source packetDropReasonIsInterfaceDown(packetDropped)
attr title "packet drops: interface down, packetBytes"
vector 122 singledumbbell.router1.ppp[1] packetDropNoCarrier:vector(packetBytes) ETV
attr interpolationmode none
attr recordingmode vector(packetBytes)
attr source packetDropReasonIsNoCarrier(packetDropped)
attr title "packet drops: no carrier, packetBytes"
vector 123 singledumbbell.router1.ipv4.ip packetDropAddressResolutionFailed:vector(packetBytes) ETV
attr interpolationmode none
attr recordingmode vector(packetBytes)
attr source packetDropReasonIsAddressResolutionFailed(packetDropped)
attr title "packet drop: address resolution failed, packetBytes"
vector 124 singledumbbell.router1.ipv4.ip packetDropHopLimitReached:vector(packetBytes) ETV
attr interpolationmode none
attr recordingmode vector(packetBytes)
attr source packetDropReasonIsHopLimitReached(packetDropped)
attr title "packet drop: hop limit reached, packetBytes"
vector 125 singledumbbell.router1.ipv4.ip packetDropForwardingDisabled:vector(packetBytes) ETV
attr interpolationmode none
attr recordingmode vector(packetBytes)
attr source packetDropReasonIsForwardingDisabled(packetDropped)
attr title "packet drop: forwarding disabled, packetBytes"
vector 126 singledumbbell.router1.ipv4.ip packetDropNoInterfaceFound:vector(packetBytes) ETV
attr interpolationmode none
attr recordingmode vector(packetBytes)
attr source packetDropReasonIsNoInterfaceFound(packetDropped)
attr title "packet drop: no interface found, packetBytes"
vector 127 singledumbbell.router1.ipv4.ip packetDropNoRouteFound:vector(packetBytes) ETV
attr interpolationmode none
attr recordingmode vector(packetBytes)
attr source packetDropReasonIsNoRouteFound(packetDropped)
attr title "packet drop: no route found, packetBytes"
vector 128 singledumbbell.router1.ipv4.ip packetDropUndefined:vector(packetBytes) ETV
attr interpolationmode none
attr recordingmode vector(packetBytes)
attr source packetDropReasonIsUndefined(packetDropped)
attr title "packet drop: undefined, packetBytes"
vector 129 singledumbbell.router1.ipv4.arp arpRequestSent:vector(packetBytes) ETV
attr recordingmode vector(packetBytes)
attr source arpRequestSent
attr title "ARP request sent, packetBytes"
vector 130 singledumbbell.router1.ipv4.arp arpReplySent:vector(packetBytes) ETV
attr recordingmode vector(packetBytes)
attr source arpReplySent
attr title "ARP replies sent, packetBytes"
vector 131 singledumbbell.router2.lo[0].lo rcvdPkFromHl:vector(packetBytes) ETV
attr interpolationmode none
attr recordingmode vector(packetBytes)
attr source packetReceivedFromUpper
attr title "packets received from higher layer, packetBytes"
vector 132 singledumbbell.router2.lo[0].lo passedUpPk:vector(packetBytes) ETV
attr interpolationmode none
attr recordingmode vector(packetBytes)
attr source packetSentToUpper
attr title "packets passed to higher layer, packetBytes"
vector 133 singledumbbell.router2.lo[0] packetDropInterfaceDown:vector(packetBytes) ETV
attr interpolationmode none
attr recordingmode vector(packetBytes)
attr source packetDropReasonIsInterfaceDown(packetDropped)
attr title "packet drops: interface down, packetBytes"
vector 134 singledumbbell.router2.lo[0] packetDropNoCarrier:vector(packetBytes) ETV
attr interpolationmode none
attr recordingmode vector(packetBytes)
attr source packetDropReasonIsNoCarrier(packetDropped)
attr title "packet drops: no carrier, packetBytes"
vector 135 singledumbbell.router2.ppp[0].queue queueLength:vector(removeRepeats) ETV
attr autoWarmupFilter false
attr interpolationmode sample-hold
attr recordingmode vector(removeRepeats)
attr source "warmup(atomic(constant0(packetPushEnded) + count(packetPushStarted) - count(packetPulled) - count(packetRemoved) - count(packetDropped)))"
attr title "queue length, removeRepeats"
attr unit pk
vector 136 singledumbbell.router2.ppp[0].queue queueBitLength:vector ETV
attr autoWarmupFilter false
attr interpolationmode sample-hold
attr recordingmode vector
attr source "warmup(atomic(constant0(packetPushEnded) + sum(packetLength(packetPushStarted)) - sum(packetLength(packetPulled)) - sum(packetLength(packetRemoved)) - sum(packetLength(packetDropped))))"
attr title "queue bit length"
attr unit b
vector 137 singledumbbell.router2.ppp[0].queue queueingTime:vector ETV
attr interpolationmode none
attr recordingmode vector
attr source queueingTime(packetPulled)
attr title "queueing times"
attr unit s
vector 138 singledumbbell.router2.ppp[0].queue incomingPacketLengths:vector ETV
attr interpolationmode none
attr recordingmode vector
attr source packetLength(packetPushStarted)
attr title "incoming packet lengths"
attr unit b
vector 139 singledumbbell.router2.ppp[0].queue incomingDataRate:vector ETV
attr interpolationmode linear
attr recordingmode vector
attr source throughput(packetPushStarted)
attr title "incoming datarate"
attr unit bps
vector 140 singledumbbell.router2.ppp[0].queue outgoingPacketLengths:vector ETV
attr interpolationmode none
attr recordingmode vector
attr source packetLength(packetPulled)
attr title "outgoing packet lengths"
attr unit b
vector 141 singledumbbell.router2.ppp[0].queue outgoingDataRate:vector ETV
attr interpolationmode linear
attr recordingmode vector
attr source throughput(packetPulled)
attr title "outgoing datarate"
attr unit bps
vector 142 singledumbbell.router2.ppp[0].queue droppedPacketLengthsQueueOverflow:vector ETV
attr interpolationmode none
attr recordingmode vector
attr source packetLength(packetDropReasonIsQueueOverflow(packetDropped))
attr title "dropped packet lengths: queue overflow"
attr unit b
vector 143 singledumbbell.router2.ppp[0].queue flowQueueingTime:vector ETV
attr interpolationmode none
attr recordingmode vector
attr source queueingTime(demuxFlow(packetPulled))
attr title "flow queueing times"
attr unit s
vector 144 singledumbbell.router2.ppp[0].queue flowIncomingDataRate:vector ETV
attr interpolationmode linear
attr recordingmode vector
attr source throughput(flowPacketLength(demuxFlow(packetPushStarted)))
attr title "flow specific incoming data rate"
attr unit bps
vector 145 singledumbbell.router2.ppp[0].queue flowOutgoingDataRate:vector ETV
attr interpolationmode linear
attr recordingmode vector
attr source throughput(flowPacketLength(demuxFlow(packetPulled)))
attr title "flow specific outgoing data rate"
attr unit bps
vector 146 singledumbbell.router2.ppp[0].ppp transmissionState:vector ETV
attr interpolationmode sample-hold
attr recordingmode vector
attr source transmissionStateChanged
attr title "tx state"
vector 147 singledumbbell.router2.ppp[0].ppp txPk:vector(packetBytes) ETV
attr interpolationmode none
attr recordingmode vector(packetBytes)
attr source packetSentToLower
attr title "packets transmitted, packetBytes"
vector 148 singledumbbell.router2.ppp[0].ppp rxPkOk:vector(packetBytes) ETV
attr interpolationmode none
attr recordingmode vector(packetBytes)
attr source rxPkOk
attr title "packets received OK, packetBytes"
vector 149 singledumbbell.router2.ppp[0].ppp packetDropIncorrectlyReceived:vector(packetBytes) ETV
attr interpolationmode none
attr recordingmode vector(packetBytes)
attr source packetDropReasonIsIncorrectlyReceived(packetDropped)
attr title "packet drop: incorrectly received, packetBytes"
vector 150 singledumbbell.router2.ppp[0].ppp packetDropInterfaceDown:vector(packetBytes) ETV
attr interpolationmode none
attr recordingmode vector(packetBytes)
attr source packetDropReasonIsInterfaceDown(packetDropped)
attr title "packet drop: interface down, packetBytes"
vector 151 singledumbbell.router2.ppp[0].ppp rcvdPkFromHl:vector(packetBytes) ETV
attr interpolationmode none
attr recordingmode vector(packetBytes)
attr source packetReceivedFromUpper
attr title "packets received from higher layer, packetBytes"
vector 152 singledumbbell.router2.ppp[0].ppp passedUpPk:vector(packetBytes) ETV
attr interpolationmode none
attr recordingmode vector(packetBytes)
attr source packetSentToUpper
attr title "packets passed to higher layer, packetBytes"
vector 153 singledumbbell.router2.ppp[0] packetDropInterfaceDown:vector(packetBytes) ETV
attr interpolationmode none
attr recordingmode vector(packetBytes)
attr source packetDropReasonIsInterfaceDown(packetDropped)
attr title "packet drops: interface down, packetBytes"
vector 154 singledumbbell.router2.ppp[0] packetDropNoCarrier:vector(packetBytes) ETV
attr interpolationmode none
attr recordingmode vector(packetBytes)
attr source packetDropReasonIsNoCarrier(packetDropped)
attr title "packet drops: no carrier, packetBytes"
vector 155 singledumbbell.router2.ppp[1].queue queueLength:vector(removeRepeats) ETV
attr autoWarmupFilter false
attr interpolationmode sample-hold
attr recordingmode vector(removeRepeats)
attr source "warmup(atomic(constant0(packetPushEnded) + count(packetPushStarted) - count(packetPulled) - count(packetRemoved) - count(packetDropped)))"
attr title "queue length, removeRepeats"
attr unit pk
vector 156 singledumbbell.router2.ppp[1].queue queueBitLength:vector ETV
attr autoWarmupFilter false
attr interpolationmode sample-hold
attr recordingmode vector
attr source "warmup(atomic(constant0(packetPushEnded) + sum(packetLength(packetPushStarted)) - sum(packetLength(packetPulled)) - sum(packetLength(packetRemoved)) - sum(packetLength(packetDropped))))"
attr title "queue bit length"
attr unit b
vector 157 singledumbbell.router2.ppp[1].queue queueingTime:vector ETV
attr interpolationmode none
attr recordingmode vector
attr source queueingTime(packetPulled)
attr title "queueing times"
attr unit s
vector 158 singledumbbell.router2.ppp[1].queue incomingPacketLengths:vector ETV
attr interpolationmode none
attr recordingmode vector
attr source packetLength(packetPushStarted)
attr title "incoming packet lengths"
attr unit b
vector 159 singledumbbell.router2.ppp[1].queue incomingDataRate:vector ETV
attr interpolationmode linear
attr recordingmode vector
attr source throughput(packetPushStarted)
attr title "incoming datarate"
attr unit bps
vector 160 singledumbbell.router2.ppp[1].queue outgoingPacketLengths:vector ETV
attr interpolationmode none
attr recordingmode vector
attr source packetLength(packetPulled)
attr title "outgoing packet lengths"
attr unit b
vector 161 singledumbbell.router2.ppp[1].queue outgoingDataRate:vector ETV
attr interpolationmode linear
attr recordingmode vector
attr source throughput(packetPulled)
attr title "outgoing datarate"
attr unit bps
vector 162 singledumbbell.router2.ppp[1].queue droppedPacketLengthsQueueOverflow:vector ETV
attr interpolationmode none
attr recordingmode vector
attr source packetLength(packetDropReasonIsQueueOverflow(packetDropped))
attr title "dropped packet lengths: queue overflow"
attr unit b
vector 163 singledumbbell.router2.ppp[1].queue flowQueueingTime:vector ETV
attr interpolationmode none
attr recordingmode vector
attr source queueingTime(demuxFlow(packetPulled))
attr title "flow queueing times"
attr unit s
vector 164 singledumbbell.router2.ppp[1].queue flowIncomingDataRate:vector ETV
attr interpolationmode linear
attr recordingmode vector
attr source throughput(flowPacketLength(demuxFlow(packetPushStarted)))
attr title "flow specific incoming data rate"
attr unit bps
vector 165 singledumbbell.router2.ppp[1].queue flowOutgoingDataRate:vector ETV
attr interpolationmode linear
attr recordingmode vector
attr source throughput(flowPacketLength(demuxFlow(packetPulled)))
attr title "flow specific outgoing data rate"
attr unit bps
vector 166 singledumbbell.router2.ppp[1].ppp transmissionState:vector ETV
attr interpolationmode sample-hold
attr recordingmode vector
attr source transmissionStateChanged
attr title "tx state"
vector 167 singledumbbell.router2.ppp[1].ppp txPk:vector(packetBytes) ETV
attr interpolationmode none
attr recordingmode vector(packetBytes)
attr source packetSentToLower
attr title "packets transmitted, packetBytes"
vector 168 singledumbbell.router2.ppp[1].ppp rxPkOk:vector(packetBytes) ETV
attr interpolationmode none
attr recordingmode vector(packetBytes)
attr source rxPkOk
attr title "packets received OK, packetBytes"
vector 169 singledumbbell.router2.ppp[1].ppp packetDropIncorrectlyReceived:vector(packetBytes) ETV
attr interpolationmode none
attr recordingmode vector(packetBytes)
attr source packetDropReasonIsIncorrectlyReceived(packetDropped)
attr title "packet drop: incorrectly received, packetBytes"
vector 170 singledumbbell.router2.ppp[1].ppp packetDropInterfaceDown:vector(packetBytes) ETV
attr interpolationmode none
attr recordingmode vector(packetBytes)
attr source packetDropReasonIsInterfaceDown(packetDropped)
attr title "packet drop: interface down, packetBytes"
vector 171 singledumbbell.router2.ppp[1].ppp rcvdPkFromHl:vector(packetBytes) ETV
attr interpolationmode none
attr recordingmode vector(packetBytes)
attr source packetReceivedFromUpper
attr title "packets received from higher layer, packetBytes"
vector 172 singledumbbell.router2.ppp[1].ppp passedUpPk:vector(packetBytes) ETV
attr interpolationmode none
attr recordingmode vector(packetBytes)
attr source packetSentToUpper
attr title "packets passed to higher layer, packetBytes"
vector 173 singledumbbell.router2.ppp[1] packetDropInterfaceDown:vector(packetBytes) ETV
attr interpolationmode none
attr recordingmode vector(packetBytes)
attr source packetDropReasonIsInterfaceDown(packetDropped)
attr title "packet drops: interface down, packetBytes"
vector 174 singledumbbell.router2.ppp[1] packetDropNoCarrier:vector(packetBytes) ETV
attr interpolationmode none
attr recordingmode vector(packetBytes)
attr source packetDropReasonIsNoCarrier(packetDropped)
attr title "packet drops: no carrier, packetBytes"
vector 175 singledumbbell.router2.ipv4.ip packetDropAddressResolutionFailed:vector(packetBytes) ETV
attr interpolationmode none
attr recordingmode vector(packetBytes)
attr source packetDropReasonIsAddressResolutionFailed(packetDropped)
attr title "packet drop: address resolution failed, packetBytes"
vector 176 singledumbbell.router2.ipv4.ip packetDropHopLimitReached:vector(packetBytes) ETV
attr interpolationmode none
attr recordingmode vector(packetBytes)
attr source packetDropReasonIsHopLimitReached(packetDropped)
attr title "packet drop: hop limit reached, packetBytes"
vector 177 singledumbbell.router2.ipv4.ip packetDropForwardingDisabled:vector(packetBytes) ETV
attr interpolationmode none
attr recordingmode vector(packetBytes)
attr source packetDropReasonIsForwardingDisabled(packetDropped)
attr title "packet drop: forwarding disabled, packetBytes"
vector 178 singledumbbell.router2.ipv4.ip packetDropNoInterfaceFound:vector(packetBytes) ETV
attr interpolationmode none
attr recordingmode vector(packetBytes)
attr source packetDropReasonIsNoInterfaceFound(packetDropped)
attr title "packet drop: no interface found, packetBytes"
vector 179 singledumbbell.router2.ipv4.ip packetDropNoRouteFound:vector(packetBytes) ETV
attr interpolationmode none
attr recordingmode vector(packetBytes)
attr source packetDropReasonIsNoRouteFound(packetDropped)
attr title "packet drop: no route found, packetBytes"
vector 180 singledumbbell.router2.ipv4.ip packetDropUndefined:vector(packetBytes) ETV
attr interpolationmode none
attr recordingmode vector(packetBytes)
attr source packetDropReasonIsUndefined(packetDropped)
attr title "packet drop: undefined, packetBytes"
vector 181 singledumbbell.router2.ipv4.arp arpRequestSent:vector(packetBytes) ETV
attr recordingmode vector(packetBytes)
attr source arpRequestSent
attr title "ARP request sent, packetBytes"
vector 182 singledumbbell.router2.ipv4.arp arpReplySent:vector(packetBytes) ETV
attr recordingmode vector(packetBytes)
attr source arpReplySent
attr title "ARP replies sent, packetBytes"
vector 183 singledumbbell.server[0].app[0].thread_8 packetReceived:vector(packetBytes) ETV
attr interpolationmode none
attr recordingmode vector(packetBytes)
attr source packetReceived
attr title "packets received, packetBytes"
vector 184 singledumbbell.server[0].app[0].thread_8 endToEndDelay:vector ETV
attr interpolationmode none
attr recordingmode vector
attr source dataAge(packetReceived)
attr title "end-to-end delay"
attr unit s
vector 185 singledumbbell.server[0].app[0].thread_8 goodput:vector(removeRepeats) ETV
attr recordingmode vector(removeRepeats)
attr source goodput
attr unit bps
vector 186 singledumbbell.server[0].tcp.conn-1 state:vector(removeRepeats) ETV
attr interpolationmode sample-hold
attr recordingmode vector(removeRepeats)
vector 187 singledumbbell.server[0].tcp.conn-1 sndWnd:vector(removeRepeats) ETV
attr interpolationmode sample-hold
attr recordingmode vector(removeRepeats)
vector 188 singledumbbell.server[0].tcp.conn-1 rcvWnd:vector(removeRepeats) ETV
attr interpolationmode sample-hold
attr recordingmode vector(removeRepeats)
vector 189 singledumbbell.server[0].tcp.conn-1 rcvAdv:vector(removeRepeats) ETV
attr interpolationmode sample-hold
attr recordingmode vector(removeRepeats)
vector 190 singledumbbell.server[0].tcp.conn-1 sndNxt:vector(removeRepeats) ETV
attr interpolationmode sample-hold
attr recordingmode vector(removeRepeats)
vector 191 singledumbbell.server[0].tcp.conn-1 sndAck:vector(removeRepeats) ETV
attr interpolationmode sample-hold
attr recordingmode vector(removeRepeats)
vector 192 singledumbbell.server[0].tcp.conn-1 rcvSeq:vector(removeRepeats) ETV
attr interpolationmode sample-hold
attr recordingmode vector(removeRepeats)
vector 193 singledumbbell.server[0].tcp.conn-1 rcvAck:vector(removeRepeats) ETV
attr interpolationmode sample-hold
attr recordingmode vector(removeRepeats)
vector 194 singledumbbell.server[0].tcp.conn-1 unacked:vector(removeRepeats) ETV
attr interpolationmode sample-hold
attr recordingmode vector(removeRepeats)
vector 195 singledumbbell.server[0].tcp.conn-1 dupAcks:vector(removeRepeats) ETV
attr interpolationmode sample-hold
attr recordingmode vector(removeRepeats)
vector 196 singledumbbell.server[0].tcp.conn-1 pipe:vector(removeRepeats) ETV
attr interpolationmode sample-hold
attr recordingmode vector(removeRepeats)
vector 197 singledumbbell.server[0].tcp.conn-1 sndSacks:vector(removeRepeats) ETV
attr interpolationmode sample-hold
attr recordingmode vector(removeRepeats)
vector 198 singledumbbell.server[0].tcp.conn-1 rcvSacks:vector(removeRepeats) ETV
attr interpolationmode sample-hold
attr recordingmode vector(removeRepeats)
vector 199 singledumbbell.server[0].tcp.conn-1 rcvOooSeg:vector(removeRepeats) ETV
attr interpolationmode sample-hold
attr recordingmode vector(removeRepeats)
vector 200 singledumbbell.server[0].tcp.conn-1 rcvNASeg:vector(removeRepeats) ETV
attr interpolationmode sample-hold
attr recordingmode vector(removeRepeats)
vector 201 singledumbbell.server[0].tcp.conn-1 sackedBytes:vector(removeRepeats) ETV
attr interpolationmode sample-hold
attr recordingmode vector(removeRepeats)
vector 202 singledumbbell.server[0].tcp.conn-1 tcpRcvQueueBytes:vector(removeRepeats) ETV
attr interpolationmode sample-hold
attr recordingmode vector(removeRepeats)
vector 203 singledumbbell.server[0].tcp.conn-1 tcpRcvQueueDrops:vector(removeRepeats) ETV
attr interpolationmode sample-hold
attr recordingmode vector(removeRepeats)
vector 204 singledumbbell.server[0].tcp.conn-1 tcpRcvPayloadBytes:vector(removeRepeats) ETV
attr interpolationmode sample-hold
attr recordingmode vector(removeRepeats)
vector 205 singledumbbell.server[0].tcp.conn-1 cwnd:vector(removeRepeats) ETV
attr interpolationmode sample-hold
attr recordingmode vector(removeRepeats)
vector 206 singledumbbell.server[0].tcp.conn-1 ssthresh:vector(removeRepeats) ETV
attr interpolationmode sample-hold
attr recordingmode vector(removeRepeats)
vector 207 singledumbbell.server[0].tcp.conn-1 rtt:vector(removeRepeats) ETV
attr interpolationmode sample-hold
attr recordingmode vector(removeRepeats)
vector 208 singledumbbell.server[0].tcp.conn-1 srtt:vector(removeRepeats) ETV
attr interpolationmode sample-hold
attr recordingmode vector(removeRepeats)
vector 209 singledumbbell.server[0].tcp.conn-1 rttvar:vector(removeRepeats) ETV
attr interpolationmode sample-hold
attr recordingmode vector(removeRepeats)
vector 210 singledumbbell.server[0].tcp.conn-1 rto:vector(removeRepeats) ETV
attr interpolationmode sample-hold
attr recordingmode vector(removeRepeats)
vector 211 singledumbbell.server[0].tcp.conn-1 numRtos:vector(removeRepeats) ETV
attr interpolationmode sample-hold
attr recordingmode vector(removeRepeats)
vector 212 singledumbbell.server[0].tcp.conn-1 load:vector(removeRepeats) ETV
attr interpolationmode sample-hold
attr recordingmode vector(removeRepeats)
vector 213 singledumbbell.server[0].tcp.conn-1 calcLoad:vector(removeRepeats) ETV
attr interpolationmode sample-hold
attr recordingmode vector(removeRepeats)
vector 214 singledumbbell.server[0].tcp.conn-1 markingProb:vector(removeRepeats) ETV
attr interpolationmode sample-hold
attr recordingmode vector(removeRepeats)
vector 215 singledumbbell.server[0].tcp.conn-1 throughput:vector(removeRepeats) ETV
attr interpolationmode sample-hold
attr recordingmode vector(removeRepeats)
vector 216 singledumbbell.server[0].tcp.conn-1 additiveIncrease:vector(removeRepeats) ETV
attr interpolationmode sample-hold
attr recordingmode vector(removeRepeats)
vector 217 singledumbbell.server[0].tcp.conn-1 pacingGain:vector(removeRepeats) ETV
attr interpolationmode sample-hold
attr recordingmode vector(removeRepeats)
vector 218 singledumbbell.server[0].tcp.conn-1 paceRate:vector(removeRepeats) ETV
attr interpolationmode sample-hold
attr recordingmode vector(removeRepeats)
vector 219 singledumbbell.server[0].tcp.conn-1 recover:vector(removeRepeats) ETV
attr interpolationmode sample-hold
attr recordingmode vector(removeRepeats)
vector 220 singledumbbell.server[0].tcp.conn-1 lossRecovery:vector(removeRepeats) ETV
attr interpolationmode sample-hold
attr recordingmode vector(removeRepeats)
vector 221 singledumbbell.server[0].tcp.conn-1 highRxt:vector(removeRepeats) ETV
attr interpolationmode sample-hold
attr recordingmode vector(removeRepeats)
vector 222 singledumbbell.server[0].tcp.conn-1 mDelivered:vector(removeRepeats) ETV
attr interpolationmode sample-hold
attr recordingmode vector(removeRepeats)
vector 223 singledumbbell.server[0].tcp.conn-1 mFirstSentTime:vector(removeRepeats) ETV
attr interpolationmode sample-hold
attr recordingmode vector(removeRepeats)
vector 224 singledumbbell.server[0].tcp.conn-1 mLastSentTime:vector(removeRepeats) ETV
attr interpolationmode sample-hold
attr recordingmode vector(removeRepeats)
vector 225 singledumbbell.server[0].tcp.conn-1 mbytesInFlight:vector(removeRepeats) ETV
attr interpolationmode sample-hold
attr recordingmode vector(removeRepeats)
vector 226 singledumbbell.server[0].tcp.conn-1 mbytesInFlightTotal:vector(removeRepeats) ETV
attr interpolationmode sample-hold
attr recordingmode vector(removeRepeats)
vector 227 singledumbbell.server[0].tcp.conn-1 mbytesLoss:vector(removeRepeats) ETV
attr interpolationmode sample-hold
attr recordingmode vector(removeRepeats)
vector 228 singledumbbell.server[0].tcp.conn-1 msendElapsed:vector(removeRepeats) ETV
attr interpolationmode sample-hold
attr recordingmode vector(removeRepeats)
vector 229 singledumbbell.server[0].tcp.conn-1 mackElapsed:vector(removeRepeats) ETV
attr interpolationmode sample-hold
attr recordingmode vector(removeRepeats)
vector 230 singledumbbell.server[0].tcp.conn-1 bicTarget:vector(removeRepeats) ETV
attr interpolationmode sample-hold
attr recordingmode vector(removeRepeats)
vector 231 singledumbbell.server[0].tcp.conn-1 originalPoint:vector(removeRepeats) ETV
attr interpolationmode sample-hold
attr recordingmode vector(removeRepeats)
vector 232 singledumbbell.server[0].tcp.conn-1 cwndSeg:vector(removeRepeats) ETV
attr interpolationmode sample-hold
attr recordingmode vector(removeRepeats)
vector 233 singledumbbell.server[0].tcp.conn-1 bicK:vector(removeRepeats) ETV
attr interpolationmode sample-hold
attr recordingmode vector(removeRepeats)
vector 234 singledumbbell.server[0].tcp.conn-1 cnt:vector(removeRepeats) ETV
attr interpolationmode sample-hold
attr recordingmode vector(removeRepeats)
vector 235 singledumbbell.server[0].tcp.conn-1 lastMaxWindow:vector(removeRepeats) ETV
attr interpolationmode sample-hold
attr recordingmode vector(removeRepeats)
vector 236 singledumbbell.server[0].tcp.conn-1 delayMin:vector(removeRepeats) ETV
attr interpolationmode sample-hold
attr recordingmode vector(removeRepeats)
vector 237 singledumbbell.server[0].tcp.conn-1 concave:vector(removeRepeats) ETV
attr interpolationmode sample-hold
attr recordingmode vector(removeRepeats)
vector 238 singledumbbell.server[0].tcp.conn-1 convex:vector(removeRepeats) ETV
attr interpolationmode sample-hold
attr recordingmode vector(removeRepeats)
vector 239 singledumbbell.server[0].tcp.conn-1 friendly:vector(removeRepeats) ETV
attr interpolationmode sample-hold
attr recordingmode vector(removeRepeats)
vector 240 singledumbbell.server[0].tcp.conn-1 sndUna:vector(removeRepeats) ETV
attr interpolationmode sample-hold
attr recordingmode vector(removeRepeats)
vector 241 singledumbbell.server[0].tcp.conn-1 recoveryPoint:vector(removeRepeats) ETV
attr interpolationmode sample-hold
attr recordingmode vector(removeRepeats)
vector 242 singledumbbell.server[0].tcp.conn-8 state:vector(removeRepeats) ETV
attr interpolationmode sample-hold
attr recordingmode vector(removeRepeats)
vector 243 singledumbbell.server[0].tcp.conn-8 sndWnd:vector(removeRepeats) ETV
attr interpolationmode sample-hold
attr recordingmode vector(removeRepeats)
vector 244 singledumbbell.server[0].tcp.conn-8 rcvWnd:vector(removeRepeats) ETV
attr interpolationmode sample-hold
attr recordingmode vector(removeRepeats)
vector 245 singledumbbell.server[0].tcp.conn-8 rcvAdv:vector(removeRepeats) ETV
attr interpolationmode sample-hold
attr recordingmode vector(removeRepeats)
vector 246 singledumbbell.server[0].tcp.conn-8 sndNxt:vector(removeRepeats) ETV
attr interpolationmode sample-hold
attr recordingmode vector(removeRepeats)
vector 247 singledumbbell.server[0].tcp.conn-8 sndAck:vector(removeRepeats) ETV
attr interpolationmode sample-hold
attr recordingmode vector(removeRepeats)
vector 248 singledumbbell.server[0].tcp.conn-8 rcvSeq:vector(removeRepeats) ETV
attr interpolationmode sample-hold
attr recordingmode vector(removeRepeats)
vector 249 singledumbbell.server[0].tcp.conn-8 rcvAck:vector(removeRepeats) ETV
attr interpolationmode sample-hold
attr recordingmode vector(removeRepeats)
vector 250 singledumbbell.server[0].tcp.conn-8 unacked:vector(removeRepeats) ETV
attr interpolationmode sample-hold
attr recordingmode vector(removeRepeats)
vector 251 singledumbbell.server[0].tcp.conn-8 dupAcks:vector(removeRepeats) ETV
attr interpolationmode sample-hold
attr recordingmode vector(removeRepeats)
vector 252 singledumbbell.server[0].tcp.conn-8 pipe:vector(removeRepeats) ETV
attr interpolationmode sample-hold
attr recordingmode vector(removeRepeats)
vector 253 singledumbbell.server[0].tcp.conn-8 sndSacks:vector(removeRepeats) ETV
attr interpolationmode sample-hold
attr recordingmode vector(removeRepeats)
vector 254 singledumbbell.server[0].tcp.conn-8 rcvSacks:vector(removeRepeats) ETV
attr interpolationmode sample-hold
attr recordingmode vector(removeRepeats)
vector 255 singledumbbell.server[0].tcp.conn-8 rcvOooSeg:vector(removeRepeats) ETV
attr interpolationmode sample-hold
attr recordingmode vector(removeRepeats)
vector 256 singledumbbell.server[0].tcp.conn-8 rcvNASeg:vector(removeRepeats) ETV
attr interpolationmode sample-hold
attr recordingmode vector(removeRepeats)
vector 257 singledumbbell.server[0].tcp.conn-8 sackedBytes:vector(removeRepeats) ETV
attr interpolationmode sample-hold
attr recordingmode vector(removeRepeats)
vector 258 singledumbbell.server[0].tcp.conn-8 tcpRcvQueueBytes:vector(removeRepeats) ETV
attr interpolationmode sample-hold
attr recordingmode vector(removeRepeats)
vector 259 singledumbbell.server[0].tcp.conn-8 tcpRcvQueueDrops:vector(removeRepeats) ETV
attr interpolationmode sample-hold
attr recordingmode vector(removeRepeats)
vector 260 singledumbbell.server[0].tcp.conn-8 tcpRcvPayloadBytes:vector(removeRepeats) ETV
attr interpolationmode sample-hold
attr recordingmode vector(removeRepeats)
vector 261 singledumbbell.server[0].tcp.conn-8 cwnd:vector(removeRepeats) ETV
attr interpolationmode sample-hold
attr recordingmode vector(removeRepeats)
vector 262 singledumbbell.server[0].tcp.conn-8 ssthresh:vector(removeRepeats) ETV
attr interpolationmode sample-hold
attr recordingmode vector(removeRepeats)
vector 263 singledumbbell.server[0].tcp.conn-8 rtt:vector(removeRepeats) ETV
attr interpolationmode sample-hold
attr recordingmode vector(removeRepeats)
vector 264 singledumbbell.server[0].tcp.conn-8 srtt:vector(removeRepeats) ETV
attr interpolationmode sample-hold
attr recordingmode vector(removeRepeats)
vector 265 singledumbbell.server[0].tcp.conn-8 rttvar:vector(removeRepeats) ETV
attr interpolationmode sample-hold
attr recordingmode vector(removeRepeats)
vector 266 singledumbbell.server[0].tcp.conn-8 rto:vector(removeRepeats) ETV
attr interpolationmode sample-hold
attr recordingmode vector(removeRepeats)
vector 267 singledumbbell.server[0].tcp.conn-8 numRtos:vector(removeRepeats) ETV
attr interpolationmode sample-hold
attr recordingmode vector(removeRepeats)
vector 268 singledumbbell.server[0].tcp.conn-8 load:vector(removeRepeats) ETV
attr interpolationmode sample-hold
attr recordingmode vector(removeRepeats)
vector 269 singledumbbell.server[0].tcp.conn-8 calcLoad:vector(removeRepeats) ETV
attr interpolationmode sample-hold
attr recordingmode vector(removeRepeats)
vector 270 singledumbbell.server[0].tcp.conn-8 markingProb:vector(removeRepeats) ETV
attr interpolationmode sample-hold
attr recordingmode vector(removeRepeats)
vector 271 singledumbbell.server[0].tcp.conn-8 throughput:vector(removeRepeats) ETV
attr interpolationmode sample-hold
attr recordingmode vector(removeRepeats)
vector 272 singledumbbell.server[0].tcp.conn-8 additiveIncrease:vector(removeRepeats) ETV
attr interpolationmode sample-hold
attr recordingmode vector(removeRepeats)
vector 273 singledumbbell.server[0].tcp.conn-8 pacingGain:vector(removeRepeats) ETV
attr interpolationmode sample-hold
attr recordingmode vector(removeRepeats)
vector 274 singledumbbell.server[0].tcp.conn-8 paceRate:vector(removeRepeats) ETV
attr interpolationmode sample-hold
attr recordingmode vector(removeRepeats)
vector 275 singledumbbell.server[0].tcp.conn-8 recover:vector(removeRepeats) ETV
attr interpolationmode sample-hold
attr recordingmode vector(removeRepeats)
vector 276 singledumbbell.server[0].tcp.conn-8 lossRecovery:vector(removeRepeats) ETV
attr interpolationmode sample-hold
attr recordingmode vector(removeRepeats)
vector 277 singledumbbell.server[0].tcp.conn-8 highRxt:vector(removeRepeats) ETV
attr interpolationmode sample-hold
attr recordingmode vector(removeRepeats)
vector 278 singledumbbell.server[0].tcp.conn-8 mDelivered:vector(removeRepeats) ETV
attr interpolationmode sample-hold
attr recordingmode vector(removeRepeats)
vector 279 singledumbbell.server[0].tcp.conn-8 mFirstSentTime:vector(removeRepeats) ETV
attr interpolationmode sample-hold
attr recordingmode vector(removeRepeats)
vector 280 singledumbbell.server[0].tcp.conn-8 mLastSentTime:vector(removeRepeats) ETV
attr interpolationmode sample-hold
attr recordingmode vector(removeRepeats)
vector 281 singledumbbell.server[0].tcp.conn-8 mbytesInFlight:vector(removeRepeats) ETV
attr interpolationmode sample-hold
attr recordingmode vector(removeRepeats)
vector 282 singledumbbell.server[0].tcp.conn-8 mbytesInFlightTotal:vector(removeRepeats) ETV
attr interpolationmode sample-hold
attr recordingmode vector(removeRepeats)
vector 283 singledumbbell.server[0].tcp.conn-8 mbytesLoss:vector(removeRepeats) ETV
attr interpolationmode sample-hold
attr recordingmode vector(removeRepeats)
vector 284 singledumbbell.server[0].tcp.conn-8 msendElapsed:vector(removeRepeats) ETV
attr interpolationmode sample-hold
attr recordingmode vector(removeRepeats)
vector 285 singledumbbell.server[0].tcp.conn-8 mackElapsed:vector(removeRepeats) ETV
attr interpolationmode sample-hold
attr recordingmode vector(removeRepeats)
vector 286 singledumbbell.server[0].tcp.conn-8 bicTarget:vector(removeRepeats) ETV
attr interpolationmode sample-hold
attr recordingmode vector(removeRepeats)
vector 287 singledumbbell.server[0].tcp.conn-8 originalPoint:vector(removeRepeats) ETV
attr interpolationmode sample-hold
attr recordingmode vector(removeRepeats)
vector 288 singledumbbell.server[0].tcp.conn-8 cwndSeg:vector(removeRepeats) ETV
attr interpolationmode sample-hold
attr recordingmode vector(removeRepeats)
vector 289 singledumbbell.server[0].tcp.conn-8 bicK:vector(removeRepeats) ETV
attr interpolationmode sample-hold
attr recordingmode vector(removeRepeats)
vector 290 singledumbbell.server[0].tcp.conn-8 cnt:vector(removeRepeats) ETV
attr interpolationmode sample-hold
attr recordingmode vector(removeRepeats)
vector 291 singledumbbell.server[0].tcp.conn-8 lastMaxWindow:vector(removeRepeats) ETV
attr interpolationmode sample-hold
attr recordingmode vector(removeRepeats)
vector 292 singledumbbell.server[0].tcp.conn-8 delayMin:vector(removeRepeats) ETV
attr interpolationmode sample-hold
attr recordingmode vector(removeRepeats)
vector 293 singledumbbell.server[0].tcp.conn-8 concave:vector(removeRepeats) ETV
attr interpolationmode sample-hold
attr recordingmode vector(removeRepeats)
vector 294 singledumbbell.server[0].tcp.conn-8 convex:vector(removeRepeats) ETV
attr interpolationmode sample-hold
attr recordingmode vector(removeRepeats)
vector 295 singledumbbell.server[0].tcp.conn-8 friendly:vector(removeRepeats) ETV
attr interpolationmode sample-hold
attr recordingmode vector(removeRepeats)
vector 296 singledumbbell.server[0].tcp.conn-8 sndUna:vector(removeRepeats) ETV
attr interpolationmode sample-hold
attr recordingmode vector(removeRepeats)
vector 297 singledumbbell.server[0].tcp.conn-8 recoveryPoint:vector(removeRepeats) ETV
attr interpolationmode sample-hold
attr recordingmode vector(removeRepeats)
vector 298 singledumbbell.client[0].tcp.conn-9 state:vector(removeRepeats) ETV
attr interpolationmode sample-hold
attr recordingmode vector(removeRepeats)
vector 299 singledumbbell.client[0].tcp.conn-9 sndWnd:vector(removeRepeats) ETV
attr interpolationmode sample-hold
attr recordingmode vector(removeRepeats)
vector 300 singledumbbell.client[0].tcp.conn-9 rcvWnd:vector(removeRepeats) ETV
attr interpolationmode sample-hold
attr recordingmode vector(removeRepeats)
vector 301 singledumbbell.client[0].tcp.conn-9 rcvAdv:vector(removeRepeats) ETV
attr interpolationmode sample-hold
attr recordingmode vector(removeRepeats)
vector 302 singledumbbell.client[0].tcp.conn-9 sndNxt:vector(removeRepeats) ETV
attr interpolationmode sample-hold
attr recordingmode vector(removeRepeats)
vector 303 singledumbbell.client[0].tcp.conn-9 sndAck:vector(removeRepeats) ETV
attr interpolationmode sample-hold
attr recordingmode vector(removeRepeats)
vector 304 singledumbbell.client[0].tcp.conn-9 rcvSeq:vector(removeRepeats) ETV
attr interpolationmode sample-hold
attr recordingmode vector(removeRepeats)
vector 305 singledumbbell.client[0].tcp.conn-9 rcvAck:vector(removeRepeats) ETV
attr interpolationmode sample-hold
attr recordingmode vector(removeRepeats)
vector 306 singledumbbell.client[0].tcp.conn-9 unacked:vector(removeRepeats) ETV
attr interpolationmode sample-hold
attr recordingmode vector(removeRepeats)
vector 307 singledumbbell.client[0].tcp.conn-9 dupAcks:vector(removeRepeats) ETV
attr interpolationmode sample-hold
attr recordingmode vector(removeRepeats)
vector 308 singledumbbell.client[0].tcp.conn-9 pipe:vector(removeRepeats) ETV
attr interpolationmode sample-hold
attr recordingmode vector(removeRepeats)
vector 309 singledumbbell.client[0].tcp.conn-9 sndSacks:vector(removeRepeats) ETV
attr interpolationmode sample-hold
attr recordingmode vector(removeRepeats)
vector 310 singledumbbell.client[0].tcp.conn-9 rcvSacks:vector(removeRepeats) ETV
attr interpolationmode sample-hold
attr recordingmode vector(removeRepeats)
vector 311 singledumbbell.client[0].tcp.conn-9 rcvOooSeg:vector(removeRepeats) ETV
attr interpolationmode sample-hold
attr recordingmode vector(removeRepeats)
vector 312 singledumbbell.client[0].tcp.conn-9 rcvNASeg:vector(removeRepeats) ETV
attr interpolationmode sample-hold
attr recordingmode vector(removeRepeats)
vector 313 singledumbbell.client[0].tcp.conn-9 sackedBytes:vector(removeRepeats) ETV
attr interpolationmode sample-hold
attr recordingmode vector(removeRepeats)
vector 314 singledumbbell.client[0].tcp.conn-9 tcpRcvQueueBytes:vector(removeRepeats) ETV
attr interpolationmode sample-hold
attr recordingmode vector(removeRepeats)
vector 315 singledumbbell.client[0].tcp.conn-9 tcpRcvQueueDrops:vector(removeRepeats) ETV
attr interpolationmode sample-hold
attr recordingmode vector(removeRepeats)
vector 316 singledumbbell.client[0].tcp.conn-9 tcpRcvPayloadBytes:vector(removeRepeats) ETV
attr interpolationmode sample-hold
attr recordingmode vector(removeRepeats)
vector 317 singledumbbell.client[0].tcp.conn-9 cwnd:vector(removeRepeats) ETV
attr interpolationmode sample-hold
attr recordingmode vector(removeRepeats)
vector 318 singledumbbell.client[0].tcp.conn-9 ssthresh:vector(removeRepeats) ETV
attr interpolationmode sample-hold
attr recordingmode vector(removeRepeats)
vector 319 singledumbbell.client[0].tcp.conn-9 rtt:vector(removeRepeats) ETV
attr interpolationmode sample-hold
attr recordingmode vector(removeRepeats)
vector 320 singledumbbell.client[0].tcp.conn-9 srtt:vector(removeRepeats) ETV
attr interpolationmode sample-hold
attr recordingmode vector(removeRepeats)
vector 321 singledumbbell.client[0].tcp.conn-9 rttvar:vector(removeRepeats) ETV
attr interpolationmode sample-hold
attr recordingmode vector(removeRepeats)
vector 322 singledumbbell.client[0].tcp.conn-9 rto:vector(removeRepeats) ETV
attr interpolationmode sample-hold
attr recordingmode vector(removeRepeats)
vector 323 singledumbbell.client[0].tcp.conn-9 numRtos:vector(removeRepeats) ETV
attr interpolationmode sample-hold
attr recordingmode vector(removeRepeats)
vector 324 singledumbbell.client[0].tcp.conn-9 load:vector(removeRepeats) ETV
attr interpolationmode sample-hold
attr recordingmode vector(removeRepeats)
vector 325 singledumbbell.client[0].tcp.conn-9 calcLoad:vector(removeRepeats) ETV
attr interpolationmode sample-hold
attr recordingmode vector(removeRepeats)
vector 326 singledumbbell.client[0].tcp.conn-9 markingProb:vector(removeRepeats) ETV
attr interpolationmode sample-hold
attr recordingmode vector(removeRepeats)
vector 327 singledumbbell.client[0].tcp.conn-9 throughput:vector(removeRepeats) ETV
attr interpolationmode sample-hold
attr recordingmode vector(removeRepeats)
vector 328 singledumbbell.client[0].tcp.conn-9 additiveIncrease:vector(removeRepeats) ETV
attr interpolationmode sample-hold
attr recordingmode vector(removeRepeats)
vector 329 singledumbbell.client[0].tcp.conn-9 pacingGain:vector(removeRepeats) ETV
attr interpolationmode sample-hold
attr recordingmode vector(removeRepeats)
vector 330 singledumbbell.client[0].tcp.conn-9 paceRate:vector(removeRepeats) ETV
attr interpolationmode sample-hold
attr recordingmode vector(removeRepeats)
vector 331 singledumbbell.client[0].tcp.conn-9 recover:vector(removeRepeats) ETV
attr interpolationmode sample-hold
attr recordingmode vector(removeRepeats)
vector 332 singledumbbell.client[0].tcp.conn-9 lossRecovery:vector(removeRepeats) ETV
attr interpolationmode sample-hold
attr recordingmode vector(removeRepeats)
vector 333 singledumbbell.client[0].tcp.conn-9 highRxt:vector(removeRepeats) ETV
attr interpolationmode sample-hold
attr recordingmode vector(removeRepeats)
vector 334 singledumbbell.client[0].tcp.conn-9 mDelivered:vector(removeRepeats) ETV
attr interpolationmode sample-hold
attr recordingmode vector(removeRepeats)
vector 335 singledumbbell.client[0].tcp.conn-9 mFirstSentTime:vector(removeRepeats) ETV
attr interpolationmode sample-hold
attr recordingmode vector(removeRepeats)
vector 336 singledumbbell.client[0].tcp.conn-9 mLastSentTime:vector(removeRepeats) ETV
attr interpolationmode sample-hold
attr recordingmode vector(removeRepeats)
vector 337 singledumbbell.client[0].tcp.conn-9 mbytesInFlight:vector(removeRepeats) ETV
attr interpolationmode sample-hold
attr recordingmode vector(removeRepeats)
vector 338 singledumbbell.client[0].tcp.conn-9 mbytesInFlightTotal:vector(removeRepeats) ETV
attr interpolationmode sample-hold
attr recordingmode vector(removeRepeats)
vector 339 singledumbbell.client[0].tcp.conn-9 mbytesLoss:vector(removeRepeats) ETV
attr interpolationmode sample-hold
attr recordingmode vector(removeRepeats)
vector 340 singledumbbell.client[0].tcp.conn-9 msendElapsed:vector(removeRepeats) ETV
attr interpolationmode sample-hold
attr recordingmode vector(removeRepeats)
vector 341 singledumbbell.client[0].tcp.conn-9 mackElapsed:vector(removeRepeats) ETV
attr interpolationmode sample-hold
attr recordingmode vector(removeRepeats)
vector 342 singledumbbell.client[0].tcp.conn-9 bicTarget:vector(removeRepeats) ETV
attr interpolationmode sample-hold
attr recordingmode vector(removeRepeats)
vector 343 singledumbbell.client[0].tcp.conn-9 originalPoint:vector(removeRepeats) ETV
attr interpolationmode sample-hold
attr recordingmode vector(removeRepeats)
vector 344 singledumbbell.client[0].tcp.conn-9 cwndSeg:vector(removeRepeats) ETV
attr interpolationmode sample-hold
attr recordingmode vector(removeRepeats)
vector 345 singledumbbell.client[0].tcp.conn-9 bicK:vector(removeRepeats) ETV
attr interpolationmode sample-hold
attr recordingmode vector(removeRepeats)
vector 346 singledumbbell.client[0].tcp.conn-9 cnt:vector(removeRepeats) ETV
attr interpolationmode sample-hold
attr recordingmode vector(removeRepeats)
vector 347 singledumbbell.client[0].tcp.conn-9 lastMaxWindow:vector(removeRepeats) ETV
attr interpolationmode sample-hold
attr recordingmode vector(removeRepeats)
vector 348 singledumbbell.client[0].tcp.conn-9 delayMin:vector(removeRepeats) ETV
attr interpolationmode sample-hold
attr recordingmode vector(removeRepeats)
vector 349 singledumbbell.client[0].tcp.conn-9 concave:vector(removeRepeats) ETV
attr interpolationmode sample-hold
attr recordingmode vector(removeRepeats)
vector 350 singledumbbell.client[0].tcp.conn-9 convex:vector(removeRepeats) ETV
attr interpolationmode sample-hold
attr recordingmode vector(removeRepeats)
vector 351 singledumbbell.client[0].tcp.conn-9 friendly:vector(removeRepeats) ETV
attr interpolationmode sample-hold
attr recordingmode vector(removeRepeats)
vector 352 singledumbbell.client[0].tcp.conn-9 sndUna:vector(removeRepeats) ETV
attr interpolationmode sample-hold
attr recordingmode vector(removeRepeats)
vector 353 singledumbbell.client[0].tcp.conn-9 recoveryPoint:vector(removeRepeats) ETV
attr interpolationmode sample-hold
attr recordingmode vector(removeRepeats)
vector 354 singledumbbell.client[0].tcp.conn-10 state:vector(removeRepeats) ETV
attr interpolationmode sample-hold
attr recordingmode vector(removeRepeats)
vector 355 singledumbbell.client[0].tcp.conn-10 sndWnd:vector(removeRepeats) ETV
attr interpolationmode sample-hold
attr recordingmode vector(removeRepeats)
vector 356 singledumbbell.client[0].tcp.conn-10 rcvWnd:vector(removeRepeats) ETV
attr interpolationmode sample-hold
attr recordingmode vector(removeRepeats)
vector 357 singledumbbell.client[0].tcp.conn-10 rcvAdv:vector(removeRepeats) ETV
attr interpolationmode sample-hold
attr recordingmode vector(removeRepeats)
vector 358 singledumbbell.client[0].tcp.conn-10 sndNxt:vector(removeRepeats) ETV
attr interpolationmode sample-hold
attr recordingmode vector(removeRepeats)
vector 359 singledumbbell.client[0].tcp.conn-10 sndAck:vector(removeRepeats) ETV
attr interpolationmode sample-hold
attr recordingmode vector(removeRepeats)
vector 360 singledumbbell.client[0].tcp.conn-10 rcvSeq:vector(removeRepeats) ETV
attr interpolationmode sample-hold
attr recordingmode vector(removeRepeats)
vector 361 singledumbbell.client[0].tcp.conn-10 rcvAck:vector(removeRepeats) ETV
attr interpolationmode sample-hold
attr recordingmode vector(removeRepeats)
vector 362 singledumbbell.client[0].tcp.conn-10 unacked:vector(removeRepeats) ETV
attr interpolationmode sample-hold
attr recordingmode vector(removeRepeats)
vector 363 singledumbbell.client[0].tcp.conn-10 dupAcks:vector(removeRepeats) ETV
attr interpolationmode sample-hold
attr recordingmode vector(removeRepeats)
vector 364 singledumbbell.client[0].tcp.conn-10 pipe:vector(removeRepeats) ETV
attr interpolationmode sample-hold
attr recordingmode vector(removeRepeats)
vector 365 singledumbbell.client[0].tcp.conn-10 sndSacks:vector(removeRepeats) ETV
attr interpolationmode sample-hold
attr recordingmode vector(removeRepeats)
vector 366 singledumbbell.client[0].tcp.conn-10 rcvSacks:vector(removeRepeats) ETV
attr interpolationmode sample-hold
attr recordingmode vector(removeRepeats)
vector 367 singledumbbell.client[0].tcp.conn-10 rcvOooSeg:vector(removeRepeats) ETV
attr interpolationmode sample-hold
attr recordingmode vector(removeRepeats)
vector 368 singledumbbell.client[0].tcp.conn-10 rcvNASeg:vector(removeRepeats) ETV
attr interpolationmode sample-hold
attr recordingmode vector(removeRepeats)
vector 369 singledumbbell.client[0].tcp.conn-10 sackedBytes:vector(removeRepeats) ETV
attr interpolationmode sample-hold
attr recordingmode vector(removeRepeats)
vector 370 singledumbbell.client[0].tcp.conn-10 tcpRcvQueueBytes:vector(removeRepeats) ETV
attr interpolationmode sample-hold
attr recordingmode vector(removeRepeats)
vector 371 singledumbbell.client[0].tcp.conn-10 tcpRcvQueueDrops:vector(removeRepeats) ETV
attr interpolationmode sample-hold
attr recordingmode vector(removeRepeats)
vector 372 singledumbbell.client[0].tcp.conn-10 tcpRcvPayloadBytes:vector(removeRepeats) ETV
attr interpolationmode sample-hold
attr recordingmode vector(removeRepeats)
vector 373 singledumbbell.client[0].tcp.conn-10 cwnd:vector(removeRepeats) ETV
attr interpolationmode sample-hold
attr recordingmode vector(removeRepeats)
[...]
4	8703	0.030734598912	385
4	8706	0.030735226912	386
4	8707	0.030735804512	385
4	8710	0.030736226912	386
4	8711	0.030737010112	385
4	8714	0.030737226912	386
4	8715	0.030738215712	385
4	8718	0.030738226912	386
4	8721	0.030739226912	387
4	8722	0.030739421312	386
4	8725	0.030740226912	387
4	8726	0.030740626912	386
4	8729	0.030741226912	387
4	8730	0.030741832512	386
4	8733	0.030742226912	387
4	8734	0.030743038112	386
4	8737	0.030743226912	387
4	8740	0.030744226912	388
4	8741	0.030744243712	387
4	8744	0.030745226912	388
4	8745	0.030745449312	387
4	8748	0.030746226912	388
4	8749	0.030746654912	387
4	8752	0.030747226912	388
4	8753	0.030747860512	387
4	8756	0.030748226912	388
4	8757	0.030749066112	387
4	8760	0.030749226912	388
4	8763	0.030750226912	389
4	8764	0.030750271712	388
4	8767	0.030751226912	389
4	8768	0.030751477312	388
4	8771	0.030752226912	389
4	8772	0.030752682912	388
4	8775	0.030753226912	389
4	8776	0.030753888512	388
4	8779	0.030754226912	389
4	8780	0.030755094112	388
4	8783	0.030755226912	389
4	8786	0.030756226912	390
4	8787	0.030756299712	389
4	8790	0.030757226912	390
4	8791	0.030757505312	389
4	8794	0.030758226912	390
4	8795	0.030758710912	389
4	8798	0.030759226912	390
4	8799	0.030759916512	389
4	8802	0.030760226912	390
4	8803	0.030761122112	389
4	8806	0.030761226912	390
4	8809	0.030762226912	391
4	8810	0.030762327712	390
4	8813	0.030763226912	391
4	8814	0.030763533312	390
4	8817	0.030764226912	391
4	8818	0.030764738912	390
4	8821	0.030765226912	391
4	8822	0.030765944512	390
4	8825	0.030766226912	391
4	8826	0.030767150112	390
4	8829	0.030767226912	391
4	8832	0.030768226912	392
4	8833	0.030768355712	391
4	8836	0.030769226912	392
4	8837	0.030769561312	391
4	8840	0.030770226912	392
4	8841	0.030770766912	391
4	8844	0.030771226912	392
4	8845	0.030771972512	391
4	8848	0.030772226912	392
4	8849	0.030773178112	391
4	8852	0.030773226912	392
4	8855	0.030774226912	393
4	8856	0.030774383712	392
4	8859	0.030775226912	393
4	8860	0.030775589312	392
4	8863	0.030776226912	393
4	8864	0.030776794912	392
4	8867	0.030777226912	393
4	8868	0.030778000512	392
4	8871	0.030778226912	393
4	8872	0.030779206112	392
4	8875	0.030779226912	393
4	8878	0.030780226912	394
4	8879	0.030780411712	393
4	8882	0.030781226912	394
4	8883	0.030781617312	393
4	8886	0.030782226912	394
4	8887	0.030782822912	393
4	8890	0.030783226912	394
4	8891	0.030784028512	393
4	8894	0.030784226912	394
4	8897	0.030785226912	395
4	8898	0.030785234112	394
4	8901	0.030786226912	395
4	8902	0.030786439712	394
4	8905	0.030787226912	395
4	8906	0.030787645312	394
4	8909	0.030788226912	395
4	8910	0.030788850912	394
4	8913	0.030789226912	395
4	8914	0.030790056512	394
4	8917	0.030790226912	395
4	8920	0.030791226912	396
4	8921	0.030791262112	395
4	8924	0.030792226912	396
4	8925	0.030792467712	395
4	8928	0.030793226912	396
4	8929	0.030793673312	395
4	8932	0.030794226912	396
4	8933	0.030794878912	395
4	8936	0.030795226912	396
4	8937	0.030796084512	395
4	8940	0.030796226912	396
4	8943	0.030797226912	397
4	8944	0.030797290112	396
4	8947	0.030798226912	397
4	8948	0.030798495712	396
4	8951	0.030799226912	397
4	8952	0.030799701312	396
4	8955	0.030800226912	397
4	8956	0.030800906912	396
4	8959	0.030801226912	397
4	8960	0.030802112512	396
4	8963	0.030802226912	397
4	8966	0.030803226912	398
4	8967	0.030803318112	397
4	8970	0.030804226912	398
4	8971	0.030804523712	397
4	8974	0.030805226912	398
4	8975	0.030805729312	397
4	8978	0.030806226912	398
4	8979	0.030806934912	397
4	8982	0.030807226912	398
4	8983	0.030808140512	397
4	8986	0.030808226912	398
4	8989	0.030809226912	399
4	8990	0.030809346112	398
4	8993	0.030810226912	399
4	8994	0.030810551712	398
4	8997	0.030811226912	399
4	8998	0.030811757312	398
4	9001	0.030812226912	399
4	9002	0.030812962912	398
4	9005	0.030813226912	399
4	9006	0.030814168512	398
4	9009	0.030814226912	399
4	9012	0.030815226912	400
4	9013	0.030815374112	399
4	9016	0.030816226912	400
4	9017	0.030816579712	399
4	9020	0.030817226912	400
4	9021	0.030817785312	399
4	9024	0.030818226912	400
4	9025	0.030818990912	399
4	9028	0.030819226912	400
4	9029	0.030820196512	399
4	9032	0.030820226912	400
4	9035	0.030821226912	401
4	9036	0.030821402112	400
4	9039	0.030822226912	401
4	9040	0.030822607712	400
4	9043	0.030823226912	401
4	9044	0.030823813312	400
4	9047	0.030824226912	401
4	9048	0.030825018912	400
4	9051	0.030825226912	401
4	9052	0.030826224512	400
4	9055	0.030826226912	401
4	9058	0.030827226912	402
4	9059	0.030827430112	401
4	9062	0.030828226912	402
4	9063	0.030828635712	401
4	9066	0.030829226912	402
4	9067	0.030829841312	401
4	9070	0.030830226912	402
4	9071	0.030831046912	401
4	9074	0.030831226912	402
4	9077	0.030832226912	403
4	9078	0.030832252512	402
4	9081	0.030833226912	403
4	9082	0.030833458112	402
4	9085	0.030834226912	403
4	9086	0.030834663712	402
4	9089	0.030835226912	403
4	9090	0.030835869312	402
4	9093	0.030836226912	403
4	9094	0.030837074912	402
4	9097	0.030837226912	403
4	9100	0.030838226912	404
4	9101	0.030838280512	403
4	9104	0.030839226912	404
4	9105	0.030839486112	403
4	9108	0.030840226912	404
4	9109	0.030840691712	403
4	9112	0.030841226912	404
4	9113	0.030841897312	403
4	9116	0.030842226912	404
4	9117	0.030843102912	403
4	9120	0.030843226912	404
4	9123	0.030844226912	405
4	9124	0.030844308512	404
4	9127	0.030845226912	405
4	9128	0.030845514112	404
4	9131	0.030846226912	405
4	9132	0.030846719712	404
4	9135	0.030847226912	405
4	9136	0.030847925312	404
4	9139	0.030848226912	405
4	9140	0.030849130912	404
4	9143	0.030849226912	405
4	9146	0.030850226912	406
4	9147	0.030850336512	405
4	9150	0.030851226912	406
4	9151	0.030851542112	405
4	9154	0.030852226912	406
4	9155	0.030852747712	405
4	9158	0.030853226912	406
4	9159	0.030853953312	405
4	9162	0.030854226912	406
4	9163	0.030855158912	405
4	9166	0.030855226912	406
4	9169	0.030856226912	407
4	9170	0.030856364512	406
4	9173	0.030857226912	407
4	9174	0.030857570112	406
4	9177	0.030858226912	407
4	9178	0.030858775712	406
4	9181	0.030859226912	407
4	9182	0.030859981312	406
4	9185	0.030860226912	407
4	9186	0.030861186912	406
4	9189	0.030861226912	407
4	9192	0.030862226912	408
4	9193	0.030862392512	407
4	9196	0.030863226912	408
4	9197	0.030863598112	407
4	9200	0.030864226912	408
4	9201	0.030864803712	407
4	9204	0.030865226912	408
4	9205	0.030866009312	407
4	9208	0.030866226912	408
4	9209	0.030867214912	407
4	9212	0.030867226912	408
4	9215	0.030868226912	409
4	9216	0.030868420512	408
4	9219	0.030869226912	409
4	9220	0.030869626112	408
4	9223	0.030870226912	409
4	9224	0.030870831712	408
4	9227	0.030871226912	409
4	9228	0.030872037312	408
4	9231	0.030872226912	409
4	9234	0.030873226912	410
4	9235	0.030873242912	409
4	9238	0.030874226912	410
4	9239	0.030874448512	409
4	9242	0.030875226912	410
4	9243	0.030875654112	409
4	9246	0.030876226912	410
4	9247	0.030876859712	409
4	9250	0.030877226912	410
4	9251	0.030878065312	409
4	9254	0.030878226912	410
4	9257	0.030879226912	411
4	9258	0.030879270912	410
4	9261	0.030880226912	411
4	9262	0.030880476512	410
4	9265	0.030881226912	411
4	9266	0.030881682112	410
4	9269	0.030882226912	411
4	9270	0.030882887712	410
4	9273	0.030883226912	411
4	9274	0.030884093312	410
4	9277	0.030884226912	411
4	9280	0.030885226912	412
4	9281	0.030885298912	411
4	9284	0.030886226912	412
4	9285	0.030886504512	411
4	9288	0.030887226912	412
4	9289	0.030887710112	411
4	9292	0.030888226912	412
4	9293	0.030888915712	411
4	9296	0.030889226912	412
4	9297	0.030890121312	411
4	9300	0.030890226912	412
4	9303	0.030891226912	413
4	9304	0.030891326912	412
4	9307	0.030892226912	413
4	9308	0.030892532512	412
4	9311	0.030893226912	413
4	9312	0.030893738112	412
4	9315	0.030894226912	413
4	9316	0.030894943712	412
4	9319	0.030895226912	413
4	9320	0.030896149312	412
4	9323	0.030896226912	413
4	9326	0.030897226912	414
4	9327	0.030897354912	413
4	9330	0.030898226912	414
4	9331	0.030898560512	413
4	9334	0.030899226912	414
4	9335	0.030899766112	413
4	9338	0.030900226912	414
4	9339	0.030900971712	413
4	9342	0.030901226912	414
4	9343	0.030902177312	413
4	9346	0.030902226912	414
4	9349	0.030903226912	415
4	9350	0.030903382912	414
4	9353	0.030904226912	415
4	9354	0.030904588512	414
4	9357	0.030905226912	415
4	9358	0.030905794112	414
4	9361	0.030906226912	415
4	9362	0.030906999712	414
4	9365	0.030907226912	415
4	9366	0.030908205312	414
4	9369	0.030908226912	415
4	9372	0.030909226912	416
4	9373	0.030909410912	415
4	9376	0.030910226912	416
4	9377	0.030910616512	415
4	9380	0.030911226912	416
4	9381	0.030911822112	415
4	9384	0.030912226912	416
4	9385	0.030913027712	415
4	9388	0.030913226912	416
4	9391	0.030914226912	417
4	9392	0.030914233312	416
4	9395	0.030915226912	417
4	9396	0.030915438912	416
4	9399	0.030916226912	417
4	9400	0.030916644512	416
4	9403	0.030917226912	417
4	9404	0.030917850112	416
4	9407	0.030918226912	417
4	9408	0.030919055712	416
4	9411	0.030919226912	417
4	9414	0.030920226912	418
4	9415	0.030920261312	417
4	9418	0.030921226912	418
4	9419	0.030921466912	417
4	9422	0.030922226912	418
4	9423	0.030922672512	417
4	9426	0.030923226912	418
4	9427	0.030923878112	417
4	9430	0.030924226912	418
4	9431	0.030925083712	417
4	9434	0.030925226912	418
4	9437	0.030926226912	419
4	9438	0.030926289312	418
4	9441	0.030927226912	419
4	9442	0.030927494912	418
4	9445	0.030928226912	419
4	9446	0.030928700512	418
4	9449	0.030929226912	419
4	9450	0.030929906112	418
4	9453	0.030930226912	419
4	9454	0.030931111712	418
4	9457	0.030931226912	419
4	9460	0.030932226912	420
4	9461	0.030932317312	419
4	9464	0.030933226912	420
4	9465	0.030933522912	419
4	9468	0.030934226912	420
4	9469	0.030934728512	419
4	9472	0.030935226912	420
4	9473	0.030935934112	419
4	9476	0.030936226912	420
4	9477	0.030937139712	419
4	9480	0.030937226912	420
4	9483	0.030938226912	421
4	9484	0.030938345312	420
4	9487	0.030939226912	421
4	9488	0.030939550912	420
4	9491	0.030940226912	421
4	9492	0.030940756512	420
4	9495	0.030941226912	421
4	9496	0.030941962112	420
4	9499	0.030942226912	421
4	9500	0.030943167712	420
4	9503	0.030943226912	421
4	9506	0.030944226912	422
4	9507	0.030944373312	421
4	9510	0.030945226912	422
4	9511	0.030945578912	421
4	9514	0.030946226912	422
4	9515	0.030946784512	421
4	9518	0.030947226912	422
4	9519	0.030947990112	421
4	9522	0.030948226912	422
4	9523	0.030949195712	421
4	9526	0.030949226912	422
4	9529	0.030950226912	423
4	9530	0.030950401312	422
4	9533	0.030951226912	423
4	9534	0.030951606912	422
4	9537	0.030952226912	423
4	9538	0.030952812512	422
4	9541	0.030953226912	423
4	9542	0.030954018112	422
4	9545	0.030954226912	423
4	9546	0.030955223712	422
4	9549	0.030955226912	423
4	9552	0.030956226912	424
4	9553	0.030956429312	423
4	9556	0.030957226912	424
4	9557	0.030957634912	423
4	9560	0.030958226912	424
4	9561	0.030958840512	423
4	9564	0.030959226912	424
4	9565	0.030960046112	423
4	9568	0.030960226912	424
4	9571	0.030961226912	425
4	9572	0.030961251712	424
4	9575	0.030962226912	425
4	9576	0.030962457312	424
4	9579	0.030963226912	425
4	9580	0.030963662912	424
4	9583	0.030964226912	425
4	9584	0.030964868512	424
4	9587	0.030965226912	425
4	9588	0.030966074112	424
4	9591	0.030966226912	425
4	9594	0.030967226912	426
4	9595	0.030967279712	425
4	9598	0.030968226912	426
4	9599	0.030968485312	425
4	9602	0.030969226912	426
4	9603	0.030969690912	425
4	9606	0.030970226912	426
4	9607	0.030970896512	425
4	9610	0.030971226912	426
4	9611	0.030972102112	425
4	9614	0.030972226912	426
4	9617	0.030973226912	427
4	9618	0.030973307712	426
4	9621	0.030974226912	427
4	9622	0.030974513312	426
4	9625	0.030975226912	427
4	9626	0.030975718912	426
4	9629	0.030976226912	427
4	9630	0.030976924512	426
4	9633	0.030977226912	427
4	9634	0.030978130112	426
4	9637	0.030978226912	427
4	9640	0.030979226912	428
4	9641	0.030979335712	427
4	9644	0.030980226912	428
4	9645	0.030980541312	427
4	9648	0.030981226912	428
4	9649	0.030981746912	427
4	9652	0.030982226912	428
4	9653	0.030982952512	427
4	9656	0.030983226912	428
4	9657	0.030984158112	427
4	9660	0.030984226912	428
4	9663	0.030985226912	429
4	9664	0.030985363712	428
4	9667	0.030986226912	429
4	9668	0.030986569312	428
4	9671	0.030987226912	429
4	9672	0.030987774912	428
4	9675	0.030988226912	429
4	9676	0.030988980512	428
4	9679	0.030989226912	429
4	9680	0.030990186112	428
4	9683	0.030990226912	429
4	9686	0.030991226912	430
4	9687	0.030991391712	429
4	9690	0.030992226912	430
4	9691	0.030992597312	429
4	9694	0.030993226912	430
4	9695	0.030993802912	429
4	9698	0.030994226912	430
4	9699	0.030995008512	429
4	9702	0.030995226912	430
4	9703	0.030996214112	429
4	9706	0.030996226912	430
4	9709	0.030997226912	431
4	9710	0.030997419712	430
4	9713	0.030998226912	431
4	9714	0.030998625312	430
4	9717	0.030999226912	431
4	9718	0.030999830912	430
4	9722	0.031000226912	431
4	9723	0.031001036512	430
4	9726	0.031001226912	431
4	9729	0.031002226912	432
4	9730	0.031002242112	431
4	9733	0.031003226912	432
4	9734	0.031003447712	431
4	9737	0.031004226912	432
4	9738	0.031004653312	431
4	9741	0.031005226912	432
4	9742	0.031005858912	431
4	9745	0.031006226912	432
4	9746	0.031007064512	431
4	9749	0.031007226912	432
4	9753	0.031008270112	431
4	9756	0.031009226912	432
4	9757	0.031009475712	431
4	9760	0.031010226912	432
4	9761	0.031010681312	431
4	9764	0.031011226912	432
4	9765	0.031011886912	431
4	9768	0.031012226912	432
4	9769	0.031013092512	431
4	9772	0.031013226912	432
4	9776	0.031014298112	431
4	9779	0.031015226912	432
4	9780	0.031015503712	431
4	9783	0.031016226912	432
4	9784	0.031016709312	431
4	9787	0.031017226912	432
4	9788	0.031017914912	431
4	9791	0.031018226912	432
4	9792	0.031019120512	431
4	9795	0.031019226912	432
4	9799	0.031020326112	431
4	9802	0.031021226912	432
4	9803	0.031021531712	431
4	9806	0.031022226912	432
4	9807	0.031022737312	431
4	9810	0.031023226912	432
4	9811	0.031023942912	431
4	9814	0.031024226912	432
4	9815	0.031025148512	431
4	9818	0.031025226912	432
4	9822	0.031026354112	431
4	9825	0.031027226912	432
4	9826	0.031027559712	431
4	9829	0.031028226912	432
4	9830	0.031028765312	431
4	9833	0.031029226912	432
4	9834	0.031029970912	431
4	9837	0.031030226912	432
4	9838	0.031031176512	431
4	9841	0.031031226912	432
4	9845	0.031032382112	431
4	9848	0.031033226912	432
4	9849	0.031033587712	431
4	9852	0.031034226912	432
4	9853	0.031034793312	431
4	9856	0.031035226912	432
4	9857	0.031035998912	431
4	9860	0.031036226912	432
4	9861	0.031037204512	431
4	9864	0.031037226912	432
4	9868	0.031038410112	431
4	9871	0.031039226912	432
4	9872	0.031039615712	431
4	9875	0.031040226912	432
4	9876	0.031040821312	431
4	9879	0.031041226912	432
4	9880	0.031042026912	431
4	9883	0.031042226912	432
4	9887	0.031043232512	431
4	9890	0.031044226912	432
4	9891	0.031044438112	431
4	9894	0.031045226912	432
4	9895	0.031045643712	431
4	9898	0.031046226912	432
4	9899	0.031046849312	431
4	9902	0.031047226912	432
4	9903	0.031048054912	431
4	9906	0.031048226912	432
4	9910	0.031049260512	431
4	9913	0.031050226912	432
4	9914	0.031050466112	431
4	9917	0.031051226912	432
4	9918	0.031051671712	431
4	9921	0.031052226912	432
4	9922	0.031052877312	431
4	9925	0.031053226912	432
4	9926	0.031054082912	431
4	9929	0.031054226912	432
4	9933	0.031055288512	431
4	9936	0.031056226912	432
4	9937	0.031056494112	431
4	9940	0.031057226912	432
4	9941	0.031057699712	431
4	9944	0.031058226912	432
4	9945	0.031058905312	431
4	9948	0.031059226912	432
4	9949	0.031060110912	431
4	9952	0.031060226912	432
4	9956	0.031061316512	431
4	9959	0.031062226912	432
4	9960	0.031062522112	431
4	9963	0.031063226912	432
4	9964	0.031063727712	431
4	9967	0.031064226912	432
4	9968	0.031064933312	431
4	9971	0.031065226912	432
4	9972	0.031066138912	431
4	9975	0.031066226912	432
4	9979	0.031067344512	431
4	9982	0.031068226912	432
4	9983	0.031068550112	431
4	9986	0.031069226912	432
4	9987	0.031069755712	431
4	9990	0.031070226912	432
4	9991	0.031070961312	431
4	9994	0.031071226912	432
4	9995	0.031072166912	431
4	9998	0.031072226912	432
4	10002	0.031073372512	431
4	10005	0.031074226912	432
4	10006	0.031074578112	431
4	10009	0.031075226912	432
4	10010	0.031075783712	431
4	10013	0.031076226912	432
4	10014	0.031076989312	431
4	10017	0.031077226912	432
4	10018	0.031078194912	431
4	10021	0.031078226912	432
4	10025	0.031079400512	431
4	10028	0.031080226912	432
4	10029	0.031080606112	431
4	10032	0.031081226912	432
4	10033	0.031081811712	431
4	10036	0.031082226912	432
4	10037	0.031083017312	431
4	10040	0.031083226912	432
4	10041	0.031084222912	431
4	10044	0.031084226912	432
4	10048	0.031085428512	431
4	10051	0.031086226912	432
4	10052	0.031086634112	431
4	10055	0.031087226912	432
4	10056	0.031087839712	431
4	10059	0.031088226912	432
4	10060	0.031089045312	431
4	10063	0.031089226912	432
4	10067	0.031090250912	431
4	10070	0.031091226912	432
4	10071	0.031091456512	431
4	10074	0.031092226912	432
4	10075	0.031092662112	431
4	10078	0.031093226912	432
4	10079	0.031093867712	431
4	10082	0.031094226912	432
4	10083	0.031095073312	431
4	10086	0.031095226912	432
4	10090	0.031096278912	431
4	10093	0.031097226912	432
4	10094	0.031097484512	431
4	10097	0.031098226912	432
4	10098	0.031098690112	431
4	10101	0.031099226912	432
4	10102	0.031099895712	431
4	10105	0.031100226912	432
4	10106	0.031101101312	431
4	10109	0.031101226912	432
4	10113	0.031102306912	431
4	10116	0.031103226912	432
4	10117	0.031103512512	431
4	10120	0.031104226912	432
4	10121	0.031104718112	431
4	10124	0.031105226912	432
4	10125	0.031105923712	431
4	10128	0.031106226912	432
4	10129	0.031107129312	431
4	10132	0.031107226912	432
4	10136	0.031108334912	431
4	10139	0.031109226912	432
4	10140	0.031109540512	431
4	10143	0.031110226912	432
4	10144	0.031110746112	431
4	10147	0.031111226912	432
4	10148	0.031111951712	431
4	10151	0.031112226912	432
4	10152	0.031113157312	431
4	10155	0.031113226912	432
4	10159	0.031114362912	431
4	10162	0.031115226912	432
4	10163	0.031115568512	431
4	10166	0.031116226912	432
4	10167	0.031116774112	431
4	10170	0.031117226912	432
4	10171	0.031117979712	431
4	10174	0.031118226912	432
4	10175	0.031119185312	431
4	10178	0.031119226912	432
4	10182	0.031120390912	431
4	10185	0.031121226912	432
4	10186	0.031121596512	431
4	10189	0.031122226912	432
4	10190	0.031122802112	431
4	10193	0.031123226912	432
4	10194	0.031124007712	431
4	10197	0.031124226912	432
4	10198	0.031125213312	431
4	10201	0.031125226912	432
4	10205	0.031126418912	431
4	10208	0.031127226912	432
4	10209	0.031127624512	431
4	10212	0.031128226912	432
4	10213	0.031128830112	431
4	10216	0.031129226912	432
4	10217	0.031130035712	431
4	10220	0.031130226912	432
4	10224	0.031131241312	431
4	10227	0.031132226912	432
4	10228	0.031132446912	431
4	10231	0.031133226912	432
4	10232	0.031133652512	431
4	10235	0.031134226912	432
4	10236	0.031134858112	431
4	10239	0.031135226912	432
4	10240	0.031136063712	431
44	0	0	0
83	0	0	0
103	0	0	0
135	0	0	0
155	0	0	0
4	10243	0.031136226912	432
4	10247	0.031137269312	431
4	10250	0.031138226912	432
4	10251	0.031138474912	431
4	10254	0.031139226912	432
4	10255	0.031139680512	431
4	10258	0.031140226912	432
4	10259	0.031140886112	431
4	10262	0.031141226912	432
4	10263	0.031142091712	431
4	10266	0.031142226912	432
4	10270	0.031143297312	431
4	10273	0.031144226912	432
4	10274	0.031144502912	431
4	10277	0.031145226912	432
4	10278	0.031145708512	431
4	10281	0.031146226912	432
4	10282	0.031146914112	431
4	10285	0.031147226912	432
4	10286	0.031148119712	431
4	10289	0.031148226912	432
4	10293	0.031149325312	431
4	10296	0.031150226912	432
4	10297	0.031150530912	431
4	10300	0.031151226912	432
4	10301	0.031151736512	431
4	10304	0.031152226912	432
4	10305	0.031152942112	431
4	10308	0.031153226912	432
4	10309	0.031154147712	431
4	10312	0.031154226912	432
4	10316	0.031155353312	431
4	10319	0.031156226912	432
4	10320	0.031156558912	431
4	10323	0.031157226912	432
4	10324	0.031157764512	431
4	10327	0.031158226912	432
4	10328	0.031158970112	431
4	10331	0.031159226912	432
4	10332	0.031160175712	431
4	10335	0.031160226912	432
4	10339	0.031161381312	431
4	10342	0.031162226912	432
4	10343	0.031162586912	431
4	10346	0.031163226912	432
4	10347	0.031163792512	431
4	10350	0.031164226912	432
4	10351	0.031164998112	431
